REMARK  Name = 212
REMARK  19 active torsions:
REMARK  status: ('A' for Active; 'I' for Inactive)
REMARK    1  A    between atoms: C_3  and  O_4
REMARK    2  A    between atoms: C_5  and  C_17
REMARK    3  A    between atoms: C_5  and  N_59
REMARK    4  A    between atoms: C_15  and  C_20
REMARK    5  A    between atoms: C_15  and  C_23
REMARK    6  A    between atoms: C_16  and  C_17
REMARK    7  A    between atoms: C_23  and  O_25
REMARK    8  A    between atoms: C_27  and  C_28
REMARK    9  A    between atoms: C_28  and  C_30
REMARK   10  A    between atoms: C_30  and  C_32
REMARK   11  A    between atoms: C_32  and  C_47
REMARK   12  A    between atoms: C_47  and  C_48
REMARK   13  A    between atoms: C_48  and  C_49
REMARK   14  A    between atoms: C_49  and  C_50
REMARK   15  A    between atoms: C_50  and  C_51
REMARK   16  A    between atoms: C_51  and  C_52
REMARK   17  A    between atoms: C_52  and  C_53
REMARK   18  A    between atoms: C_53  and  C_54
REMARK   19  A    between atoms: C_54  and  C_55
REMARK                            x       y       z     vdW  Elec       q    Type
REMARK                         _______ _______ _______ _____ _____    ______ ____
ROOT
ATOM      1  C   UNL     1      -0.791  -1.824   7.080  0.00  0.00    -0.024 A 
ATOM      2  C   UNL     1      -1.727  -2.539   7.833  0.00  0.00    +0.000 A 
ATOM      3  C   UNL     1      -2.987  -2.819   7.305  0.00  0.00    +0.074 A 
ATOM      4  C   UNL     1      -3.314  -2.330   6.035  0.00  0.00    +0.008 A 
ATOM      5  C   UNL     1      -2.378  -1.604   5.289  0.00  0.00    -0.049 A 
ATOM      6  C   UNL     1      -2.829  -0.993   3.961  0.00  0.00    +0.058 C 
ATOM      7  C   UNL     1      -1.808   0.034   3.409  0.00  0.00    +0.017 C 
ATOM      8  C   UNL     1      -0.389  -0.600   3.397  0.00  0.00    -0.010 C 
ATOM      9  C   UNL     1       0.717   0.212   2.628  0.00  0.00    -0.065 C 
ATOM     10  C   UNL     1       2.099  -0.542   2.672  0.00  0.00    -0.024 C 
ATOM     11  C   UNL     1       2.125  -1.827   1.781  0.00  0.00    -0.096 C 
ATOM     12  C   UNL     1       2.461  -0.910   4.144  0.00  0.00    -0.079 C 
ATOM     13  C   UNL     1       1.339  -1.685   4.879  0.00  0.00    -0.004 C 
ATOM     14  C   UNL     1       0.040  -0.833   4.878  0.00  0.00    +0.028 C 
ATOM     15  C   UNL     1      -1.070  -1.439   5.762  0.00  0.00    -0.049 A 
ENDROOT
BRANCH   3  16
ATOM     16  O   UNL     1      -3.893  -3.575   8.056  0.00  0.00    -0.339 OA
ATOM     17  H   UNL     1      -4.710  -3.763   7.609  0.00  0.00    +0.246 HD
ENDBRANCH   3  16
BRANCH  10  18
ATOM     18  C   UNL     1       3.224   0.398   2.271  0.00  0.00    +0.266 C 
BRANCH  18  19
ATOM     19  O   UNL     1       4.111  -0.070   1.381  0.00  0.00    -0.261 OA
ATOM     20  H   UNL     1       4.792   0.552   1.148  0.00  0.00    +0.320 HD
ENDBRANCH  18  19
ENDBRANCH  10  18
BRANCH   9  21
ATOM     21  C   UNL     1       0.252   0.602   1.183  0.00  0.00    +0.010 C 
BRANCH  21  22
ATOM     22  C   UNL     1       1.281   1.353   0.293  0.00  0.00    +0.133 C 
BRANCH  22  23
ATOM     23  N   UNL     1       0.693   1.863  -0.944  0.00  0.00    -0.287 N 
ATOM     24  H   UNL     1      -0.262   1.653  -1.163  0.00  0.00    +0.185 HD
ATOM     25  C   UNL     1       1.459   2.591  -1.787  0.00  0.00    +0.176 C 
ATOM     26  O   UNL     1       2.626   2.842  -1.534  0.00  0.00    -0.397 OA
BRANCH  25  27
ATOM     27  C   UNL     1       0.842   3.099  -3.067  0.00  0.00    +0.138 C 
BRANCH  27  28
ATOM     28  C   UNL     1       1.864   3.829  -3.981  0.00  0.00    +0.022 C 
BRANCH  28  29
ATOM     29  C   UNL     1       1.198   4.332  -5.291  0.00  0.00    +0.002 C 
BRANCH  29  30
ATOM     30  C   UNL     1       2.227   5.041  -6.213  0.00  0.00    +0.000 C 
BRANCH  30  31
ATOM     31  C   UNL     1       1.560   5.548  -7.521  0.00  0.00    -0.000 C 
BRANCH  31  32
ATOM     32  C   UNL     1       2.591   6.245  -8.451  0.00  0.00    -0.000 C 
BRANCH  32  33
ATOM     33  C   UNL     1       1.922   6.754  -9.757  0.00  0.00    -0.000 C 
BRANCH  33  34
ATOM     34  C   UNL     1       2.955   7.440 -10.693  0.00  0.00    -0.000 C 
BRANCH  34  35
ATOM     35  C   UNL     1       2.284   7.957 -11.995  0.00  0.00    -0.000 C 
BRANCH  35  36
ATOM     36  C   UNL     1       3.318   8.636 -12.935  0.00  0.00    -0.000 C 
BRANCH  36  37
ATOM     37  C   UNL     1       2.646   9.156 -14.235  0.00  0.00    -0.003 C 
ATOM     38  C   UNL     1       3.681   9.830 -15.174  0.00  0.00    +0.004 C 
ENDBRANCH  36  37
ENDBRANCH  35  36
ENDBRANCH  34  35
ENDBRANCH  33  34
ENDBRANCH  32  33
ENDBRANCH  31  32
ENDBRANCH  30  31
ENDBRANCH  29  30
ENDBRANCH  28  29
ENDBRANCH  27  28
ENDBRANCH  25  27
ENDBRANCH  22  23
ENDBRANCH  21  22
ENDBRANCH   9  21
TORSDOF 17
