REMARK  Name = 301
REMARK  5 active torsions:
REMARK  status: ('A' for Active; 'I' for Inactive)
REMARK    1  A    between atoms: C_3  and  O_4
REMARK    2  A    between atoms: C_5  and  C_17
REMARK    3  A    between atoms: C_15  and  C_20
REMARK    4  A    between atoms: C_15  and  C_23
REMARK    5  A    between atoms: C_16  and  C_17
REMARK                            x       y       z     vdW  Elec       q    Type
REMARK                         _______ _______ _______ _____ _____    ______ ____
ROOT
ATOM      1  C   UNL     1       2.036  -0.696   5.898  0.00  0.00    -0.024 A 
ATOM      2  C   UNL     1       2.096  -1.316   7.149  0.00  0.00    +0.000 A 
ATOM      3  C   UNL     1       0.930  -1.776   7.763  0.00  0.00    +0.074 A 
ATOM      4  C   UNL     1      -0.298  -1.564   7.128  0.00  0.00    +0.008 A 
ATOM      5  C   UNL     1      -0.356  -0.935   5.879  0.00  0.00    -0.049 A 
ATOM      6  C   UNL     1      -1.737  -0.632   5.292  0.00  0.00    +0.058 C 
ATOM      7  C   UNL     1      -1.663   0.312   4.066  0.00  0.00    +0.018 C 
ATOM      8  C   UNL     1      -0.598  -0.225   3.072  0.00  0.00    +0.003 C 
ATOM      9  C   UNL     1      -0.606   0.473   1.667  0.00  0.00    +0.012 C 
ATOM     10  C   UNL     1       0.518  -0.089   0.718  0.00  0.00    +0.024 C 
ATOM     11  C   UNL     1       0.195  -1.538   0.225  0.00  0.00    -0.014 C 
ATOM     12  C   UNL     1       1.890  -0.070   1.456  0.00  0.00    -0.011 C 
ATOM     13  C   UNL     1       1.852  -0.777   2.836  0.00  0.00    +0.010 C 
ATOM     14  C   UNL     1       0.800  -0.083   3.746  0.00  0.00    +0.030 C 
ATOM     15  C   UNL     1       0.823  -0.590   5.204  0.00  0.00    -0.048 A 
ENDROOT
BRANCH  10  16
ATOM     16  C   UNL     1       0.709   0.869  -0.454  0.00  0.00    +0.109 C 
ATOM     17  N   UNL     1       0.858   0.532  -1.696  0.00  0.00    -0.296 N 
ATOM     18  H   UNL     1       0.865  -0.432  -2.053  0.00  0.00    +0.187 HD
ATOM     19  C   UNL     1       0.999   1.687  -2.553  0.00  0.00    +0.156 C 
ATOM     20  C   UNL     1       0.896   2.805  -1.472  0.00  0.00    +0.150 C 
ATOM     21  N   UNL     1       0.730   2.113  -0.210  0.00  0.00    -0.273 NA
ENDBRANCH  10  16
BRANCH   3  22
ATOM     22  O   UNL     1       1.017  -2.430   8.996  0.00  0.00    -0.339 OA
ATOM     23  H   UNL     1       0.183  -2.731   9.339  0.00  0.00    +0.246 HD
ENDBRANCH   3  22
BRANCH   9  24
ATOM     24  C   UNL     1      -2.015   0.421   0.995  0.00  0.00    +0.183 C 
BRANCH  24  25
ATOM     25  C   UNL     1      -2.042   0.885  -0.389  0.00  0.00    +0.089 C 
ATOM     26  N   UNL     1      -2.074   1.250  -1.487  0.00  0.00    -0.304 NA
ENDBRANCH  24  25
ENDBRANCH   9  24
TORSDOF 4
