REMARK  Name = 301
REMARK  5 active torsions:
REMARK  status: ('A' for Active; 'I' for Inactive)
REMARK    1  A    between atoms: C_3  and  O_4
REMARK    2  A    between atoms: C_5  and  C_17
REMARK    3  A    between atoms: C_15  and  C_20
REMARK    4  A    between atoms: C_15  and  C_23
REMARK    5  A    between atoms: C_16  and  C_17
REMARK                            x       y       z     vdW  Elec       q    Type
REMARK                         _______ _______ _______ _____ _____    ______ ____
ROOT
ATOM      1  C   UNL     1       2.014  -0.711   6.083  0.00  0.00    -0.024 A 
ATOM      2  C   UNL     1       2.014  -1.425   7.283  0.00  0.00    +0.000 A 
ATOM      3  C   UNL     1       0.833  -1.990   7.766  0.00  0.00    +0.074 A 
ATOM      4  C   UNL     1      -0.353  -1.794   7.051  0.00  0.00    +0.008 A 
ATOM      5  C   UNL     1      -0.355  -1.069   5.853  0.00  0.00    -0.049 A 
ATOM      6  C   UNL     1      -1.710  -0.811   5.183  0.00  0.00    +0.058 C 
ATOM      7  C   UNL     1      -1.600   0.244   4.056  0.00  0.00    +0.018 C 
ATOM      8  C   UNL     1      -0.420  -0.139   3.128  0.00  0.00    +0.003 C 
ATOM      9  C   UNL     1      -0.427   0.580   1.737  0.00  0.00    +0.012 C 
ATOM     10  C   UNL     1       0.751   0.056   0.844  0.00  0.00    +0.024 C 
ATOM     11  C   UNL     1       0.553  -1.419   0.365  0.00  0.00    -0.014 C 
ATOM     12  C   UNL     1       2.091   0.187   1.634  0.00  0.00    -0.011 C 
ATOM     13  C   UNL     1       2.074  -0.498   3.030  0.00  0.00    +0.010 C 
ATOM     14  C   UNL     1       0.913   0.048   3.907  0.00  0.00    +0.030 C 
ATOM     15  C   UNL     1       0.850  -0.598   5.309  0.00  0.00    -0.048 A 
ENDROOT
BRANCH  10  16
ATOM     16  C   UNL     1       0.850   0.875  -0.436  0.00  0.00    +0.109 C 
ATOM     17  N   UNL     1      -0.129   0.992  -1.274  0.00  0.00    -0.296 N 
ATOM     18  H   UNL     1      -1.054   0.550  -1.164  0.00  0.00    +0.187 HD
ATOM     19  C   UNL     1       0.223   1.829  -2.399  0.00  0.00    +0.156 C 
ATOM     20  C   UNL     1       1.688   2.178  -1.988  0.00  0.00    +0.150 C 
ATOM     21  N   UNL     1       1.917   1.492  -0.732  0.00  0.00    -0.273 NA
ENDBRANCH  10  16
BRANCH   3  22
ATOM     22  O   UNL     1       0.862  -2.730   8.952  0.00  0.00    -0.339 OA
ATOM     23  H   UNL     1       0.022  -3.095   9.207  0.00  0.00    +0.246 HD
ENDBRANCH   3  22
BRANCH   9  24
ATOM     24  C   UNL     1      -0.451   2.141   1.832  0.00  0.00    +0.183 C 
BRANCH  24  25
ATOM     25  C   UNL     1      -1.707   2.649   2.369  0.00  0.00    +0.089 C 
ATOM     26  N   UNL     1      -2.706   3.052   2.794  0.00  0.00    -0.304 NA
ENDBRANCH  24  25
ENDBRANCH   9  24
TORSDOF 4
