REMARK  Name = 302
REMARK  5 active torsions:
REMARK  status: ('A' for Active; 'I' for Inactive)
REMARK    1  A    between atoms: C_3  and  O_4
REMARK    2  A    between atoms: C_5  and  C_17
REMARK    3  A    between atoms: C_15  and  C_20
REMARK    4  A    between atoms: C_15  and  C_23
REMARK    5  A    between atoms: C_16  and  C_17
REMARK                            x       y       z     vdW  Elec       q    Type
REMARK                         _______ _______ _______ _____ _____    ______ ____
ROOT
ATOM      1  C   UNL     1       2.029  -0.759   6.062  0.00  0.00    -0.024 A 
ATOM      2  C   UNL     1       2.037  -1.493   7.251  0.00  0.00    +0.000 A 
ATOM      3  C   UNL     1       0.856  -2.048   7.744  0.00  0.00    +0.074 A 
ATOM      4  C   UNL     1      -0.339  -1.824   7.050  0.00  0.00    +0.008 A 
ATOM      5  C   UNL     1      -0.349  -1.078   5.865  0.00  0.00    -0.049 A 
ATOM      6  C   UNL     1      -1.710  -0.787   5.220  0.00  0.00    +0.058 C 
ATOM      7  C   UNL     1      -1.602   0.298   4.122  0.00  0.00    +0.018 C 
ATOM      8  C   UNL     1      -0.446  -0.082   3.163  0.00  0.00    +0.003 C 
ATOM      9  C   UNL     1      -0.459   0.666   1.788  0.00  0.00    +0.013 C 
ATOM     10  C   UNL     1       0.692   0.122   0.872  0.00  0.00    +0.034 C 
ATOM     11  C   UNL     1       0.433  -1.329   0.354  0.00  0.00    -0.014 C 
ATOM     12  C   UNL     1       2.053   0.204   1.627  0.00  0.00    -0.011 C 
ATOM     13  C   UNL     1       2.038  -0.504   3.010  0.00  0.00    +0.009 C 
ATOM     14  C   UNL     1       0.906   0.057   3.919  0.00  0.00    +0.030 C 
ATOM     15  C   UNL     1       0.855  -0.615   5.310  0.00  0.00    -0.048 A 
ENDROOT
BRANCH  10  16
ATOM     16  C   UNL     1       0.777   0.954  -0.389  0.00  0.00    +0.167 C 
ATOM     17  O   UNL     1      -0.316   1.070  -1.140  0.00  0.00    -0.283 OA
ATOM     18  C   UNL     1       0.126   1.639  -2.375  0.00  0.00    +0.226 C 
ATOM     19  C   UNL     1       1.458   2.313  -1.979  0.00  0.00    +0.169 C 
ATOM     20  N   UNL     1       1.811   1.575  -0.792  0.00  0.00    -0.254 NA
ENDBRANCH  10  16
BRANCH   3  21
ATOM     21  O   UNL     1       0.892  -2.807   8.918  0.00  0.00    -0.339 OA
ATOM     22  H   UNL     1       0.048  -3.149   9.189  0.00  0.00    +0.246 HD
ENDBRANCH   3  21
BRANCH   9  23
ATOM     23  C   UNL     1      -0.429   2.226   1.912  0.00  0.00    +0.183 C 
BRANCH  23  24
ATOM     24  C   UNL     1      -1.637   2.766   2.525  0.00  0.00    +0.089 C 
ATOM     25  N   UNL     1      -2.595   3.196   3.010  0.00  0.00    -0.304 NA
ENDBRANCH  23  24
ENDBRANCH   9  23
TORSDOF 4
