REMARK  Name = 303
REMARK  5 active torsions:
REMARK  status: ('A' for Active; 'I' for Inactive)
REMARK    1  A    between atoms: C_3  and  O_4
REMARK    2  A    between atoms: C_5  and  C_17
REMARK    3  A    between atoms: C_15  and  C_20
REMARK    4  A    between atoms: C_15  and  C_23
REMARK    5  A    between atoms: C_16  and  C_17
REMARK                            x       y       z     vdW  Elec       q    Type
REMARK                         _______ _______ _______ _____ _____    ______ ____
ROOT
ATOM      1  C   UNL     1       2.033  -0.626   5.879  0.00  0.00    -0.024 A 
ATOM      2  C   UNL     1       2.103  -1.222   7.141  0.00  0.00    +0.000 A 
ATOM      3  C   UNL     1       0.944  -1.687   7.764  0.00  0.00    +0.074 A 
ATOM      4  C   UNL     1      -0.288  -1.503   7.128  0.00  0.00    +0.008 A 
ATOM      5  C   UNL     1      -0.355  -0.899   5.866  0.00  0.00    -0.049 A 
ATOM      6  C   UNL     1      -1.740  -0.628   5.274  0.00  0.00    +0.058 C 
ATOM      7  C   UNL     1      -1.679   0.299   4.033  0.00  0.00    +0.018 C 
ATOM      8  C   UNL     1      -0.608  -0.241   3.046  0.00  0.00    +0.000 C 
ATOM      9  C   UNL     1      -0.625   0.436   1.632  0.00  0.00    -0.004 C 
ATOM     10  C   UNL     1       0.497  -0.143   0.695  0.00  0.00    +0.006 C 
ATOM     11  C   UNL     1       0.184  -1.595   0.211  0.00  0.00    -0.039 C 
ATOM     12  C   UNL     1       1.873  -0.110   1.426  0.00  0.00    -0.032 C 
ATOM     13  C   UNL     1       1.844  -0.783   2.822  0.00  0.00    +0.006 C 
ATOM     14  C   UNL     1       0.789  -0.076   3.716  0.00  0.00    +0.030 C 
ATOM     15  C   UNL     1       0.819  -0.551   5.184  0.00  0.00    -0.048 A 
ENDROOT
BRANCH  10  16
ATOM     16  C   UNL     1       0.674   0.792  -0.492  0.00  0.00    +0.114 A 
ATOM     17  N   UNL     1       0.679   0.474  -1.762  0.00  0.00    -0.246 N 
ATOM     18  C   UNL     1       0.852   1.630  -2.445  0.00  0.00    +0.109 A 
ATOM     19  C   UNL     1       0.958   2.651  -1.515  0.00  0.00    +0.090 A 
ATOM     20  C   UNL     1       1.144   3.986  -1.863  0.00  0.00    +0.030 A 
ATOM     21  C   UNL     1       1.218   4.248  -3.239  0.00  0.00    -0.002 A 
ATOM     22  C   UNL     1       1.110   3.219  -4.191  0.00  0.00    +0.007 A 
ATOM     23  C   UNL     1       0.923   1.881  -3.814  0.00  0.00    +0.037 A 
ATOM     24  H   UNL     1       0.557  -0.458  -2.176  0.00  0.00    +0.235 HD
ATOM     25  N   UNL     1       0.839   2.041  -0.329  0.00  0.00    -0.247 NA
ENDBRANCH  10  16
BRANCH   3  26
ATOM     26  O   UNL     1       1.041  -2.318   9.008  0.00  0.00    -0.339 OA
ATOM     27  H   UNL     1       0.215  -2.646   9.346  0.00  0.00    +0.246 HD
ENDBRANCH   3  26
BRANCH   9  28
ATOM     28  C   UNL     1      -2.039   0.369   0.972  0.00  0.00    +0.179 C 
BRANCH  28  29
ATOM     29  C   UNL     1      -2.072   0.780  -0.428  0.00  0.00    +0.089 C 
ATOM     30  N   UNL     1      -2.106   1.103  -1.539  0.00  0.00    -0.304 NA
ENDBRANCH  28  29
ENDBRANCH   9  28
TORSDOF 4
