REMARK  Name = 303
REMARK  5 active torsions:
REMARK  status: ('A' for Active; 'I' for Inactive)
REMARK    1  A    between atoms: C_3  and  O_4
REMARK    2  A    between atoms: C_5  and  C_17
REMARK    3  A    between atoms: C_15  and  C_20
REMARK    4  A    between atoms: C_15  and  C_23
REMARK    5  A    between atoms: C_16  and  C_17
REMARK                            x       y       z     vdW  Elec       q    Type
REMARK                         _______ _______ _______ _____ _____    ______ ____
ROOT
ATOM      1  C   UNL     1       1.972  -0.639   6.105  0.00  0.00    -0.024 A 
ATOM      2  C   UNL     1       1.991  -1.358   7.303  0.00  0.00    +0.000 A 
ATOM      3  C   UNL     1       0.832  -1.980   7.768  0.00  0.00    +0.074 A 
ATOM      4  C   UNL     1      -0.349  -1.849   7.031  0.00  0.00    +0.008 A 
ATOM      5  C   UNL     1      -0.369  -1.125   5.832  0.00  0.00    -0.049 A 
ATOM      6  C   UNL     1      -1.722  -0.952   5.132  0.00  0.00    +0.058 C 
ATOM      7  C   UNL     1      -1.659   0.116   4.014  0.00  0.00    +0.018 C 
ATOM      8  C   UNL     1      -0.436  -0.178   3.109  0.00  0.00    +0.000 C 
ATOM      9  C   UNL     1      -0.462   0.557   1.726  0.00  0.00    -0.004 C 
ATOM     10  C   UNL     1       0.773   0.128   0.860  0.00  0.00    +0.006 C 
ATOM     11  C   UNL     1       0.684  -1.347   0.352  0.00  0.00    -0.039 C 
ATOM     12  C   UNL     1       2.082   0.344   1.677  0.00  0.00    -0.032 C 
ATOM     13  C   UNL     1       2.081  -0.363   3.061  0.00  0.00    +0.006 C 
ATOM     14  C   UNL     1       0.865   0.086   3.920  0.00  0.00    +0.030 C 
ATOM     15  C   UNL     1       0.817  -0.581   5.314  0.00  0.00    -0.048 A 
ENDROOT
BRANCH  10  16
ATOM     16  C   UNL     1       0.848   0.964  -0.405  0.00  0.00    +0.114 A 
ATOM     17  N   UNL     1      -0.092   1.026  -1.312  0.00  0.00    -0.246 N 
ATOM     18  C   UNL     1       0.357   1.872  -2.270  0.00  0.00    +0.109 A 
ATOM     19  C   UNL     1       1.611   2.312  -1.879  0.00  0.00    +0.090 A 
ATOM     20  C   UNL     1       2.375   3.203  -2.627  0.00  0.00    +0.030 A 
ATOM     21  C   UNL     1       1.794   3.642  -3.826  0.00  0.00    -0.002 A 
ATOM     22  C   UNL     1       0.523   3.199  -4.233  0.00  0.00    +0.007 A 
ATOM     23  C   UNL     1      -0.228   2.300  -3.461  0.00  0.00    +0.037 A 
ATOM     24  H   UNL     1      -0.996   0.534  -1.307  0.00  0.00    +0.235 HD
ATOM     25  N   UNL     1       1.838   1.698  -0.711  0.00  0.00    -0.247 NA
ENDBRANCH  10  16
BRANCH   3  26
ATOM     26  O   UNL     1       0.878  -2.714   8.957  0.00  0.00    -0.339 OA
ATOM     27  H   UNL     1       0.042  -3.076   9.227  0.00  0.00    +0.246 HD
ENDBRANCH   3  26
BRANCH   9  28
ATOM     28  C   UNL     1      -0.598   2.111   1.842  0.00  0.00    +0.179 C 
BRANCH  28  29
ATOM     29  C   UNL     1      -1.905   2.522   2.341  0.00  0.00    +0.089 C 
ATOM     30  N   UNL     1      -2.943   2.849   2.735  0.00  0.00    -0.304 NA
ENDBRANCH  28  29
ENDBRANCH   9  28
TORSDOF 4
