MODEL 1
REMARK minimizedAffinity -8.39855099
REMARK minimizedRMSD -1
REMARK  Name = scaffold
REMARK  6 active torsions:
REMARK  status: ('A' for Active; 'I' for Inactive)
REMARK    1  A    between atoms: C_3  and  O_4
REMARK    2  A    between atoms: C_5  and  C_17
REMARK    3  A    between atoms: C_15  and  C_20
REMARK    4  A    between atoms: C_15  and  C_23
REMARK    5  A    between atoms: C_16  and  C_17
REMARK    6  A    between atoms: C_23  and  O_25
REMARK                            x       y       z     vdW  Elec       q    Type
REMARK                         _______ _______ _______ _____ _____    ______ ____
ROOT
ATOM      1  C   UNL     1      27.594  -1.903  28.039  0.00  0.00    -0.024 A 
ATOM      2  C   UNL     1      26.224  -1.753  27.805  0.00  0.00    +0.000 A 
ATOM      3  C   UNL     1      25.732  -0.575  27.242  0.00  0.00    +0.074 A 
ATOM      4  C   UNL     1      26.623   0.467  26.964  0.00  0.00    +0.008 A 
ATOM      5  C   UNL     1      27.994   0.316  27.207  0.00  0.00    -0.049 A 
ATOM      6  C   UNL     1      28.899   1.530  26.984  0.00  0.00    +0.058 C 
ATOM      7  C   UNL     1      30.320   1.320  27.566  0.00  0.00    +0.018 C 
ATOM      8  C   UNL     1      30.875  -0.045  27.075  0.00  0.00    +0.000 C 
ATOM      9  C   UNL     1      32.400  -0.270  27.361  0.00  0.00    -0.004 C 
ATOM     10  C   UNL     1      32.887  -1.677  26.857  0.00  0.00    +0.006 C 
ATOM     11  C   UNL     1      32.975  -1.759  25.299  0.00  0.00    -0.039 C 
ATOM     12  C   UNL     1      31.943  -2.794  27.396  0.00  0.00    -0.032 C 
ATOM     13  C   UNL     1      30.445  -2.529  27.099  0.00  0.00    +0.006 C 
ATOM     14  C   UNL     1      30.023  -1.174  27.728  0.00  0.00    +0.030 C 
ATOM     15  C   UNL     1      28.504  -0.912  27.648  0.00  0.00    -0.048 A 
ENDROOT
BRANCH   3  16
ATOM     16  O   UNL     1      24.364  -0.461  26.977  0.00  0.00    -0.339 OA
ATOM     17  H   UNL     1      24.113   0.352  26.553  0.00  0.00    +0.246 HD
ENDBRANCH   3  16
BRANCH   9  18
ATOM     18  C   UNL     1      32.561  -0.238  28.915  0.00  0.00    +0.179 C 
BRANCH  18  19
ATOM     19  C   UNL     1      33.403   0.844  29.412  0.00  0.00    +0.089 C 
ATOM     20  N   UNL     1      34.080   1.698  29.805  0.00  0.00    -0.304 NA
ENDBRANCH  18  19
ENDBRANCH   9  18
BRANCH  10  21
ATOM     21  C   UNL     1      34.237  -1.983  27.487  0.00  0.00    +0.114 C 
BRANCH  21  22
ATOM     22  O   UNL     1      35.394  -1.449  27.188  0.00  0.00    -0.246 OA
ATOM     23  H   UNL     1      36.069  -1.826  27.740  0.00  0.00    +0.000 HD
ENDBRANCH  21  22
ENDBRANCH  10  21
TORSDOF 5
ENDMDL
MODEL 2
REMARK minimizedAffinity -8.35171223
REMARK minimizedRMSD -1
REMARK  Name = scaffold
REMARK  6 active torsions:
REMARK  status: ('A' for Active; 'I' for Inactive)
REMARK    1  A    between atoms: C_3  and  O_4
REMARK    2  A    between atoms: C_5  and  C_17
REMARK    3  A    between atoms: C_15  and  C_20
REMARK    4  A    between atoms: C_15  and  C_23
REMARK    5  A    between atoms: C_16  and  C_17
REMARK    6  A    between atoms: C_23  and  O_25
REMARK                            x       y       z     vdW  Elec       q    Type
REMARK                         _______ _______ _______ _____ _____    ______ ____
ROOT
ATOM      1  C   UNL     1      28.132   0.316  26.438  0.00  0.00    -0.024 A 
ATOM      2  C   UNL     1      26.754   0.224  26.650  0.00  0.00    +0.000 A 
ATOM      3  C   UNL     1      26.225  -0.831  27.395  0.00  0.00    +0.074 A 
ATOM      4  C   UNL     1      27.090  -1.816  27.882  0.00  0.00    +0.008 A 
ATOM      5  C   UNL     1      28.470  -1.725  27.661  0.00  0.00    -0.049 A 
ATOM      6  C   UNL     1      29.348  -2.890  28.124  0.00  0.00    +0.058 C 
ATOM      7  C   UNL     1      30.790  -2.801  27.562  0.00  0.00    +0.018 C 
ATOM      8  C   UNL     1      31.352  -1.376  27.823  0.00  0.00    +0.000 C 
ATOM      9  C   UNL     1      32.888  -1.222  27.552  0.00  0.00    -0.004 C 
ATOM     10  C   UNL     1      33.382   0.247  27.816  0.00  0.00    +0.006 C 
ATOM     11  C   UNL     1      33.423   0.602  29.336  0.00  0.00    -0.039 C 
ATOM     12  C   UNL     1      32.473   1.260  27.056  0.00  0.00    -0.032 C 
ATOM     13  C   UNL     1      30.963   1.069  27.347  0.00  0.00    +0.006 C 
ATOM     14  C   UNL     1      30.538  -0.372  26.952  0.00  0.00    +0.030 C 
ATOM     15  C   UNL     1      29.014  -0.600  27.027  0.00  0.00    -0.048 A 
ENDROOT
BRANCH   3  16
ATOM     16  O   UNL     1      24.848  -0.881  27.630  0.00  0.00    -0.339 OA
ATOM     17  H   UNL     1      24.572  -1.604  28.182  0.00  0.00    +0.246 HD
ENDBRANCH   3  16
BRANCH   9  18
ATOM     18  C   UNL     1      33.096  -1.530  26.034  0.00  0.00    +0.179 C 
BRANCH  18  19
ATOM     19  C   UNL     1      33.228  -2.948  25.719  0.00  0.00    +0.089 C 
ATOM     20  N   UNL     1      33.328  -4.076  25.476  0.00  0.00    -0.304 NA
ENDBRANCH  18  19
ENDBRANCH   9  18
BRANCH  10  21
ATOM     21  C   UNL     1      34.756   0.422  27.186  0.00  0.00    +0.114 C 
BRANCH  21  22
ATOM     22  O   UNL     1      35.426   1.536  27.036  0.00  0.00    -0.246 OA
ATOM     23  H   UNL     1      36.256   1.352  26.611  0.00  0.00    +0.000 HD
ENDBRANCH  21  22
ENDBRANCH  10  21
TORSDOF 5
ENDMDL
MODEL 3
REMARK minimizedAffinity -7.51523399
REMARK minimizedRMSD -1
REMARK  Name = scaffold
REMARK  6 active torsions:
REMARK  status: ('A' for Active; 'I' for Inactive)
REMARK    1  A    between atoms: C_3  and  O_4
REMARK    2  A    between atoms: C_5  and  C_17
REMARK    3  A    between atoms: C_15  and  C_20
REMARK    4  A    between atoms: C_15  and  C_23
REMARK    5  A    between atoms: C_16  and  C_17
REMARK    6  A    between atoms: C_23  and  O_25
REMARK                            x       y       z     vdW  Elec       q    Type
REMARK                         _______ _______ _______ _____ _____    ______ ____
ROOT
ATOM      1  C   UNL     1      28.689  -1.471  26.330  0.00  0.00    -0.024 A 
ATOM      2  C   UNL     1      27.306  -1.469  26.126  0.00  0.00    +0.000 A 
ATOM      3  C   UNL     1      26.526  -0.421  26.616  0.00  0.00    +0.074 A 
ATOM      4  C   UNL     1      27.141   0.597  27.351  0.00  0.00    +0.008 A 
ATOM      5  C   UNL     1      28.526   0.588  27.559  0.00  0.00    -0.049 A 
ATOM      6  C   UNL     1      29.122   1.669  28.463  0.00  0.00    +0.058 C 
ATOM      7  C   UNL     1      30.595   1.372  28.845  0.00  0.00    +0.018 C 
ATOM      8  C   UNL     1      31.398   1.039  27.558  0.00  0.00    +0.000 C 
ATOM      9  C   UNL     1      32.952   0.983  27.755  0.00  0.00    -0.004 C 
ATOM     10  C   UNL     1      33.697   0.621  26.419  0.00  0.00    +0.006 C 
ATOM     11  C   UNL     1      33.682   1.794  25.387  0.00  0.00    -0.039 C 
ATOM     12  C   UNL     1      33.066  -0.655  25.784  0.00  0.00    -0.032 C 
ATOM     13  C   UNL     1      31.528  -0.560  25.613  0.00  0.00    +0.006 C 
ATOM     14  C   UNL     1      30.867  -0.314  26.997  0.00  0.00    +0.030 C 
ATOM     15  C   UNL     1      29.326  -0.393  26.958  0.00  0.00    -0.048 A 
ENDROOT
BRANCH   3  16
ATOM     16  O   UNL     1      25.150  -0.416  26.365  0.00  0.00    -0.339 OA
ATOM     17  H   UNL     1      24.695   0.352  26.692  0.00  0.00    +0.246 HD
ENDBRANCH   3  16
BRANCH   9  18
ATOM     18  C   UNL     1      33.219  -0.169  28.777  0.00  0.00    +0.179 C 
BRANCH  18  19
ATOM     19  C   UNL     1      34.539  -0.132  29.397  0.00  0.00    +0.089 C 
ATOM     20  N   UNL     1      35.591  -0.100  29.881  0.00  0.00    -0.304 NA
ENDBRANCH  18  19
ENDBRANCH   9  18
BRANCH  10  21
ATOM     21  C   UNL     1      35.125   0.214  26.749  0.00  0.00    +0.114 C 
BRANCH  21  22
ATOM     22  O   UNL     1      36.176   0.991  26.828  0.00  0.00    -0.246 OA
ATOM     23  H   UNL     1      36.939   0.471  27.051  0.00  0.00    +0.000 HD
ENDBRANCH  21  22
ENDBRANCH  10  21
TORSDOF 5
ENDMDL
MODEL 4
REMARK minimizedAffinity -7.50012589
REMARK minimizedRMSD -1
REMARK  Name = scaffold
REMARK  6 active torsions:
REMARK  status: ('A' for Active; 'I' for Inactive)
REMARK    1  A    between atoms: C_3  and  O_4
REMARK    2  A    between atoms: C_5  and  C_17
REMARK    3  A    between atoms: C_15  and  C_20
REMARK    4  A    between atoms: C_15  and  C_23
REMARK    5  A    between atoms: C_16  and  C_17
REMARK    6  A    between atoms: C_23  and  O_25
REMARK                            x       y       z     vdW  Elec       q    Type
REMARK                         _______ _______ _______ _____ _____    ______ ____
ROOT
ATOM      1  C   UNL     1      28.784   0.706  26.510  0.00  0.00    -0.024 A 
ATOM      2  C   UNL     1      27.410   0.459  26.442  0.00  0.00    +0.000 A 
ATOM      3  C   UNL     1      26.862  -0.650  27.087  0.00  0.00    +0.074 A 
ATOM      4  C   UNL     1      27.714  -1.532  27.759  0.00  0.00    +0.008 A 
ATOM      5  C   UNL     1      29.091  -1.286  27.820  0.00  0.00    -0.049 A 
ATOM      6  C   UNL     1      29.981  -2.345  28.475  0.00  0.00    +0.058 C 
ATOM      7  C   UNL     1      31.488  -2.093  28.212  0.00  0.00    +0.018 C 
ATOM      8  C   UNL     1      31.823  -0.615  28.551  0.00  0.00    +0.000 C 
ATOM      9  C   UNL     1      33.356  -0.288  28.592  0.00  0.00    -0.004 C 
ATOM     10  C   UNL     1      33.620   1.227  28.918  0.00  0.00    +0.006 C 
ATOM     11  C   UNL     1      33.313   1.582  30.408  0.00  0.00    -0.039 C 
ATOM     12  C   UNL     1      32.778   2.133  27.970  0.00  0.00    -0.032 C 
ATOM     13  C   UNL     1      31.271   1.772  27.954  0.00  0.00    +0.006 C 
ATOM     14  C   UNL     1      31.097   0.293  27.513  0.00  0.00    +0.030 C 
ATOM     15  C   UNL     1      29.624  -0.105  27.284  0.00  0.00    -0.048 A 
ENDROOT
BRANCH   3  16
ATOM     16  O   UNL     1      25.480  -0.855  27.042  0.00  0.00    -0.339 OA
ATOM     17  H   UNL     1      25.179  -1.606  27.542  0.00  0.00    +0.246 HD
ENDBRANCH   3  16
BRANCH   9  18
ATOM     18  C   UNL     1      33.900  -0.568  27.154  0.00  0.00    +0.179 C 
BRANCH  18  19
ATOM     19  C   UNL     1      35.253  -1.112  27.115  0.00  0.00    +0.089 C 
ATOM     20  N   UNL     1      36.327  -1.544  27.095  0.00  0.00    -0.304 NA
ENDBRANCH  18  19
ENDBRANCH   9  18
BRANCH  10  21
ATOM     21  C   UNL     1      35.065   1.557  28.575  0.00  0.00    +0.114 C 
BRANCH  21  22
ATOM     22  O   UNL     1      35.500   2.293  27.583  0.00  0.00    -0.246 OA
ATOM     23  H   UNL     1      36.449   2.330  27.608  0.00  0.00    +0.000 HD
ENDBRANCH  21  22
ENDBRANCH  10  21
TORSDOF 5
ENDMDL
MODEL 5
REMARK minimizedAffinity -7.14823389
REMARK minimizedRMSD -1
REMARK  Name = scaffold
REMARK  6 active torsions:
REMARK  status: ('A' for Active; 'I' for Inactive)
REMARK    1  A    between atoms: C_3  and  O_4
REMARK    2  A    between atoms: C_5  and  C_17
REMARK    3  A    between atoms: C_15  and  C_20
REMARK    4  A    between atoms: C_15  and  C_23
REMARK    5  A    between atoms: C_16  and  C_17
REMARK    6  A    between atoms: C_23  and  O_25
REMARK                            x       y       z     vdW  Elec       q    Type
REMARK                         _______ _______ _______ _____ _____    ______ ____
ROOT
ATOM      1  C   UNL     1      33.951  -0.540  29.007  0.00  0.00    -0.024 A 
ATOM      2  C   UNL     1      35.345  -0.579  28.931  0.00  0.00    +0.000 A 
ATOM      3  C   UNL     1      35.973  -1.115  27.806  0.00  0.00    +0.074 A 
ATOM      4  C   UNL     1      35.187  -1.653  26.782  0.00  0.00    +0.008 A 
ATOM      5  C   UNL     1      33.789  -1.618  26.865  0.00  0.00    -0.049 A 
ATOM      6  C   UNL     1      32.989  -2.321  25.766  0.00  0.00    +0.058 C 
ATOM      7  C   UNL     1      31.488  -2.463  26.129  0.00  0.00    +0.018 C 
ATOM      8  C   UNL     1      30.944  -1.085  26.596  0.00  0.00    +0.000 C 
ATOM      9  C   UNL     1      29.384  -1.015  26.737  0.00  0.00    -0.004 C 
ATOM     10  C   UNL     1      28.907   0.398  27.233  0.00  0.00    +0.006 C 
ATOM     11  C   UNL     1      29.045   1.498  26.132  0.00  0.00    -0.039 C 
ATOM     12  C   UNL     1      29.704   0.815  28.506  0.00  0.00    -0.032 C 
ATOM     13  C   UNL     1      31.241   0.725  28.326  0.00  0.00    +0.006 C 
ATOM     14  C   UNL     1      31.633  -0.730  27.947  0.00  0.00    +0.030 C 
ATOM     15  C   UNL     1      33.158  -0.964  27.932  0.00  0.00    -0.048 A 
ENDROOT
BRANCH   3  16
ATOM     16  O   UNL     1      37.370  -1.106  27.732  0.00  0.00    -0.339 OA
ATOM     17  H   UNL     1      37.720  -1.447  26.916  0.00  0.00    +0.246 HD
ENDBRANCH   3  16
BRANCH   9  18
ATOM     18  C   UNL     1      28.999  -2.060  27.833  0.00  0.00    +0.179 C 
BRANCH  18  19
ATOM     19  C   UNL     1      28.279  -3.225  27.330  0.00  0.00    +0.089 C 
ATOM     20  N   UNL     1      27.706  -4.145  26.922  0.00  0.00    -0.304 NA
ENDBRANCH  18  19
ENDBRANCH   9  18
BRANCH  10  21
ATOM     21  C   UNL     1      27.465   0.290  27.706  0.00  0.00    +0.114 C 
BRANCH  21  22
ATOM     22  O   UNL     1      26.382   0.313  26.970  0.00  0.00    -0.246 OA
ATOM     23  H   UNL     1      25.618   0.226  27.528  0.00  0.00    +0.000 HD
ENDBRANCH  21  22
ENDBRANCH  10  21
TORSDOF 5
ENDMDL
MODEL 6
REMARK minimizedAffinity -6.89742374
REMARK minimizedRMSD -1
REMARK  Name = scaffold
REMARK  6 active torsions:
REMARK  status: ('A' for Active; 'I' for Inactive)
REMARK    1  A    between atoms: C_3  and  O_4
REMARK    2  A    between atoms: C_5  and  C_17
REMARK    3  A    between atoms: C_15  and  C_20
REMARK    4  A    between atoms: C_15  and  C_23
REMARK    5  A    between atoms: C_16  and  C_17
REMARK    6  A    between atoms: C_23  and  O_25
REMARK                            x       y       z     vdW  Elec       q    Type
REMARK                         _______ _______ _______ _____ _____    ______ ____
ROOT
ATOM      1  C   UNL     1      31.762  -1.631  23.209  0.00  0.00    -0.024 A 
ATOM      2  C   UNL     1      32.074  -2.622  22.275  0.00  0.00    +0.000 A 
ATOM      3  C   UNL     1      32.570  -3.856  22.698  0.00  0.00    +0.074 A 
ATOM      4  C   UNL     1      32.793  -4.065  24.063  0.00  0.00    +0.008 A 
ATOM      5  C   UNL     1      32.485  -3.067  24.996  0.00  0.00    -0.049 A 
ATOM      6  C   UNL     1      32.855  -3.315  26.460  0.00  0.00    +0.058 C 
ATOM      7  C   UNL     1      32.736  -2.033  27.324  0.00  0.00    +0.018 C 
ATOM      8  C   UNL     1      31.352  -1.375  27.071  0.00  0.00    +0.000 C 
ATOM      9  C   UNL     1      30.984  -0.226  28.072  0.00  0.00    -0.004 C 
ATOM     10  C   UNL     1      29.583   0.407  27.744  0.00  0.00    +0.006 C 
ATOM     11  C   UNL     1      28.396  -0.543  28.105  0.00  0.00    -0.039 C 
ATOM     12  C   UNL     1      29.513   0.797  26.237  0.00  0.00    -0.032 C 
ATOM     13  C   UNL     1      29.890  -0.364  25.283  0.00  0.00    +0.006 C 
ATOM     14  C   UNL     1      31.330  -0.852  25.604  0.00  0.00    +0.030 C 
ATOM     15  C   UNL     1      31.866  -1.878  24.584  0.00  0.00    -0.048 A 
ENDROOT
BRANCH   3  16
ATOM     16  O   UNL     1      32.837  -4.849  21.751  0.00  0.00    -0.339 OA
ATOM     17  H   UNL     1      33.129  -5.675  22.120  0.00  0.00    +0.246 HD
ENDBRANCH   3  16
BRANCH   9  18
ATOM     18  C   UNL     1      32.067   0.884  27.877  0.00  0.00    +0.179 C 
BRANCH  18  19
ATOM     19  C   UNL     1      32.829   1.202  29.080  0.00  0.00    +0.089 C 
ATOM     20  N   UNL     1      33.436   1.462  30.031  0.00  0.00    -0.304 NA
ENDBRANCH  18  19
ENDBRANCH   9  18
BRANCH  10  21
ATOM     21  C   UNL     1      29.458   1.729  28.486  0.00  0.00    +0.114 C 
BRANCH  21  22
ATOM     22  O   UNL     1      28.436   2.548  28.487  0.00  0.00    -0.246 OA
ATOM     23  H   UNL     1      28.631   3.297  29.037  0.00  0.00    +0.000 HD
ENDBRANCH  21  22
ENDBRANCH  10  21
TORSDOF 5
ENDMDL
MODEL 7
REMARK minimizedAffinity -6.87264967
REMARK minimizedRMSD -1
REMARK  Name = scaffold
REMARK  6 active torsions:
REMARK  status: ('A' for Active; 'I' for Inactive)
REMARK    1  A    between atoms: C_3  and  O_4
REMARK    2  A    between atoms: C_5  and  C_17
REMARK    3  A    between atoms: C_15  and  C_20
REMARK    4  A    between atoms: C_15  and  C_23
REMARK    5  A    between atoms: C_16  and  C_17
REMARK    6  A    between atoms: C_23  and  O_25
REMARK                            x       y       z     vdW  Elec       q    Type
REMARK                         _______ _______ _______ _____ _____    ______ ____
ROOT
ATOM      1  C   UNL     1      32.177  -1.589  23.277  0.00  0.00    -0.024 A 
ATOM      2  C   UNL     1      32.067  -2.526  22.246  0.00  0.00    +0.000 A 
ATOM      3  C   UNL     1      32.261  -3.883  22.506  0.00  0.00    +0.074 A 
ATOM      4  C   UNL     1      32.613  -4.282  23.799  0.00  0.00    +0.008 A 
ATOM      5  C   UNL     1      32.729  -3.339  24.829  0.00  0.00    -0.049 A 
ATOM      6  C   UNL     1      33.224  -3.825  26.193  0.00  0.00    +0.058 C 
ATOM      7  C   UNL     1      33.587  -2.652  27.140  0.00  0.00    +0.018 C 
ATOM      8  C   UNL     1      32.415  -1.633  27.161  0.00  0.00    +0.000 C 
ATOM      9  C   UNL     1      32.526  -0.536  28.277  0.00  0.00    -0.004 C 
ATOM     10  C   UNL     1      31.320   0.471  28.225  0.00  0.00    +0.006 C 
ATOM     11  C   UNL     1      29.983  -0.167  28.722  0.00  0.00    -0.039 C 
ATOM     12  C   UNL     1      31.143   1.019  26.777  0.00  0.00    -0.032 C 
ATOM     13  C   UNL     1      31.045  -0.097  25.705  0.00  0.00    +0.006 C 
ATOM     14  C   UNL     1      32.326  -0.974  25.752  0.00  0.00    +0.030 C 
ATOM     15  C   UNL     1      32.407  -1.994  24.597  0.00  0.00    -0.048 A 
ENDROOT
BRANCH   3  16
ATOM     16  O   UNL     1      32.106  -4.808  21.469  0.00  0.00    -0.339 OA
ATOM     17  H   UNL     1      32.210  -5.715  21.735  0.00  0.00    +0.246 HD
ENDBRANCH   3  16
BRANCH   9  18
ATOM     18  C   UNL     1      33.831   0.266  27.971  0.00  0.00    +0.179 C 
BRANCH  18  19
ATOM     19  C   UNL     1      34.905   0.063  28.937  0.00  0.00    +0.089 C 
ATOM     20  N   UNL     1      35.759  -0.107  29.700  0.00  0.00    -0.304 NA
ENDBRANCH  18  19
ENDBRANCH   9  18
BRANCH  10  21
ATOM     21  C   UNL     1      31.670   1.697  29.056  0.00  0.00    +0.114 C 
BRANCH  21  22
ATOM     22  O   UNL     1      31.768   1.774  30.359  0.00  0.00    -0.246 OA
ATOM     23  H   UNL     1      32.000   2.661  30.607  0.00  0.00    +0.000 HD
ENDBRANCH  21  22
ENDBRANCH  10  21
TORSDOF 5
ENDMDL
MODEL 8
REMARK minimizedAffinity -6.37968206
REMARK minimizedRMSD -1
REMARK  Name = scaffold
REMARK  6 active torsions:
REMARK  status: ('A' for Active; 'I' for Inactive)
REMARK    1  A    between atoms: C_3  and  O_4
REMARK    2  A    between atoms: C_5  and  C_17
REMARK    3  A    between atoms: C_15  and  C_20
REMARK    4  A    between atoms: C_15  and  C_23
REMARK    5  A    between atoms: C_16  and  C_17
REMARK    6  A    between atoms: C_23  and  O_25
REMARK                            x       y       z     vdW  Elec       q    Type
REMARK                         _______ _______ _______ _____ _____    ______ ____
ROOT
ATOM      1  C   UNL     1      33.859  -0.991  26.435  0.00  0.00    -0.024 A 
ATOM      2  C   UNL     1      35.204  -1.178  26.764  0.00  0.00    +0.000 A 
ATOM      3  C   UNL     1      35.628  -1.055  28.088  0.00  0.00    +0.074 A 
ATOM      4  C   UNL     1      34.696  -0.694  29.067  0.00  0.00    +0.008 A 
ATOM      5  C   UNL     1      33.350  -0.500  28.732  0.00  0.00    -0.049 A 
ATOM      6  C   UNL     1      32.404   0.000  29.827  0.00  0.00    +0.058 C 
ATOM      7  C   UNL     1      31.034   0.452  29.260  0.00  0.00    +0.018 C 
ATOM      8  C   UNL     1      30.475  -0.660  28.330  0.00  0.00    +0.000 C 
ATOM      9  C   UNL     1      28.981  -0.460  27.902  0.00  0.00    -0.004 C 
ATOM     10  C   UNL     1      28.490  -1.608  26.946  0.00  0.00    +0.006 C 
ATOM     11  C   UNL     1      28.291  -2.966  27.693  0.00  0.00    -0.039 C 
ATOM     12  C   UNL     1      29.495  -1.790  25.769  0.00  0.00    -0.032 C 
ATOM     13  C   UNL     1      30.962  -1.977  26.236  0.00  0.00    +0.006 C 
ATOM     14  C   UNL     1      31.398  -0.746  27.078  0.00  0.00    +0.030 C 
ATOM     15  C   UNL     1      32.901  -0.751  27.429  0.00  0.00    -0.048 A 
ENDROOT
BRANCH   3  16
ATOM     16  O   UNL     1      36.970  -1.288  28.403  0.00  0.00    -0.339 OA
ATOM     17  H   UNL     1      37.171  -1.228  29.330  0.00  0.00    +0.246 HD
ENDBRANCH   3  16
BRANCH   9  18
ATOM     18  C   UNL     1      28.933   0.881  27.100  0.00  0.00    +0.179 C 
BRANCH  18  19
ATOM     19  C   UNL     1      28.429   2.020  27.860  0.00  0.00    +0.089 C 
ATOM     20  N   UNL     1      28.034   2.921  28.470  0.00  0.00    -0.304 NA
ENDBRANCH  18  19
ENDBRANCH   9  18
BRANCH  10  21
ATOM     21  C   UNL     1      27.196  -1.169  26.277  0.00  0.00    +0.114 C 
BRANCH  21  22
ATOM     22  O   UNL     1      26.058  -0.883  26.857  0.00  0.00    -0.246 OA
ATOM     23  H   UNL     1      25.419  -0.638  26.197  0.00  0.00    +0.000 HD
ENDBRANCH  21  22
ENDBRANCH  10  21
TORSDOF 5
ENDMDL
MODEL 9
REMARK minimizedAffinity -6.21593809
REMARK minimizedRMSD -1
REMARK  Name = scaffold
REMARK  6 active torsions:
REMARK  status: ('A' for Active; 'I' for Inactive)
REMARK    1  A    between atoms: C_3  and  O_4
REMARK    2  A    between atoms: C_5  and  C_17
REMARK    3  A    between atoms: C_15  and  C_20
REMARK    4  A    between atoms: C_15  and  C_23
REMARK    5  A    between atoms: C_16  and  C_17
REMARK    6  A    between atoms: C_23  and  O_25
REMARK                            x       y       z     vdW  Elec       q    Type
REMARK                         _______ _______ _______ _____ _____    ______ ____
ROOT
ATOM      1  C   UNL     1      32.700  -3.874  24.696  0.00  0.00    -0.024 A 
ATOM      2  C   UNL     1      32.595  -4.569  23.487  0.00  0.00    +0.000 A 
ATOM      3  C   UNL     1      32.283  -3.887  22.310  0.00  0.00    +0.074 A 
ATOM      4  C   UNL     1      32.031  -2.513  22.369  0.00  0.00    +0.008 A 
ATOM      5  C   UNL     1      32.130  -1.821  23.583  0.00  0.00    -0.049 A 
ATOM      6  C   UNL     1      31.736  -0.343  23.600  0.00  0.00    +0.058 C 
ATOM      7  C   UNL     1      31.607   0.216  25.040  0.00  0.00    +0.018 C 
ATOM      8  C   UNL     1      32.879  -0.161  25.848  0.00  0.00    +0.000 C 
ATOM      9  C   UNL     1      33.010   0.564  27.232  0.00  0.00    -0.004 C 
ATOM     10  C   UNL     1      34.306   0.119  28.003  0.00  0.00    +0.006 C 
ATOM     11  C   UNL     1      35.611   0.696  27.365  0.00  0.00    -0.039 C 
ATOM     12  C   UNL     1      34.385  -1.436  28.063  0.00  0.00    -0.032 C 
ATOM     13  C   UNL     1      34.244  -2.113  26.675  0.00  0.00    +0.006 C 
ATOM     14  C   UNL     1      32.887  -1.708  26.037  0.00  0.00    +0.030 C 
ATOM     15  C   UNL     1      32.571  -2.480  24.739  0.00  0.00    -0.048 A 
ENDROOT
BRANCH   3  16
ATOM     16  O   UNL     1      32.223  -4.594  21.105  0.00  0.00    -0.339 OA
ATOM     17  H   UNL     1      32.049  -4.053  20.342  0.00  0.00    +0.246 HD
ENDBRANCH   3  16
BRANCH   9  18
ATOM     18  C   UNL     1      31.775   0.115  28.078  0.00  0.00    +0.179 C 
BRANCH  18  19
ATOM     19  C   UNL     1      30.826   1.183  28.373  0.00  0.00    +0.089 C 
ATOM     20  N   UNL     1      30.071   2.032  28.598  0.00  0.00    -0.304 NA
ENDBRANCH  18  19
ENDBRANCH   9  18
BRANCH  10  21
ATOM     21  C   UNL     1      34.184   0.551  29.456  0.00  0.00    +0.114 C 
BRANCH  21  22
ATOM     22  O   UNL     1      34.197   1.772  29.928  0.00  0.00    -0.246 OA
ATOM     23  H   UNL     1      34.103   1.747  30.873  0.00  0.00    +0.000 HD
ENDBRANCH  21  22
ENDBRANCH  10  21
TORSDOF 5
ENDMDL
MODEL 10
REMARK minimizedAffinity -6.07244205
REMARK minimizedRMSD -1
REMARK  Name = scaffold
REMARK  6 active torsions:
REMARK  status: ('A' for Active; 'I' for Inactive)
REMARK    1  A    between atoms: C_3  and  O_4
REMARK    2  A    between atoms: C_5  and  C_17
REMARK    3  A    between atoms: C_15  and  C_20
REMARK    4  A    between atoms: C_15  and  C_23
REMARK    5  A    between atoms: C_16  and  C_17
REMARK    6  A    between atoms: C_23  and  O_25
REMARK                            x       y       z     vdW  Elec       q    Type
REMARK                         _______ _______ _______ _____ _____    ______ ____
ROOT
ATOM      1  C   UNL     1      33.765   0.175  29.358  0.00  0.00    -0.024 A 
ATOM      2  C   UNL     1      34.618   1.245  29.638  0.00  0.00    +0.000 A 
ATOM      3  C   UNL     1      35.008   2.118  28.622  0.00  0.00    +0.074 A 
ATOM      4  C   UNL     1      34.571   1.876  27.315  0.00  0.00    +0.008 A 
ATOM      5  C   UNL     1      33.722   0.798  27.037  0.00  0.00    -0.049 A 
ATOM      6  C   UNL     1      33.369   0.523  25.573  0.00  0.00    +0.058 C 
ATOM      7  C   UNL     1      32.679  -0.852  25.382  0.00  0.00    +0.018 C 
ATOM      8  C   UNL     1      31.514  -0.984  26.401  0.00  0.00    +0.000 C 
ATOM      9  C   UNL     1      30.560  -2.201  26.146  0.00  0.00    -0.004 C 
ATOM     10  C   UNL     1      29.420  -2.285  27.226  0.00  0.00    +0.006 C 
ATOM     11  C   UNL     1      28.345  -1.165  27.052  0.00  0.00    -0.039 C 
ATOM     12  C   UNL     1      30.034  -2.216  28.657  0.00  0.00    -0.032 C 
ATOM     13  C   UNL     1      30.976  -1.002  28.864  0.00  0.00    +0.006 C 
ATOM     14  C   UNL     1      32.133  -1.061  27.829  0.00  0.00    +0.030 C 
ATOM     15  C   UNL     1      33.226  -0.000  28.077  0.00  0.00    -0.048 A 
ENDROOT
BRANCH   3  16
ATOM     16  O   UNL     1      35.829   3.207  28.931  0.00  0.00    -0.339 OA
ATOM     17  H   UNL     1      36.013   3.780  28.195  0.00  0.00    +0.246 HD
ENDBRANCH   3  16
BRANCH   9  18
ATOM     18  C   UNL     1      31.443  -3.483  26.285  0.00  0.00    +0.179 C 
BRANCH  18  19
ATOM     19  C   UNL     1      32.097  -3.902  25.050  0.00  0.00    +0.089 C 
ATOM     20  N   UNL     1      32.618  -4.242  24.073  0.00  0.00    -0.304 NA
ENDBRANCH  18  19
ENDBRANCH   9  18
BRANCH  10  21
ATOM     21  C   UNL     1      28.778  -3.662  27.154  0.00  0.00    +0.114 C 
BRANCH  21  22
ATOM     22  O   UNL     1      27.556  -3.951  26.782  0.00  0.00    -0.246 OA
ATOM     23  H   UNL     1      27.424  -4.891  26.833  0.00  0.00    +0.000 HD
ENDBRANCH  21  22
ENDBRANCH  10  21
TORSDOF 5
ENDMDL
MODEL 11
REMARK minimizedAffinity -5.94853115
REMARK minimizedRMSD -1
REMARK  Name = scaffold
REMARK  6 active torsions:
REMARK  status: ('A' for Active; 'I' for Inactive)
REMARK    1  A    between atoms: C_3  and  O_4
REMARK    2  A    between atoms: C_5  and  C_17
REMARK    3  A    between atoms: C_15  and  C_20
REMARK    4  A    between atoms: C_15  and  C_23
REMARK    5  A    between atoms: C_16  and  C_17
REMARK    6  A    between atoms: C_23  and  O_25
REMARK                            x       y       z     vdW  Elec       q    Type
REMARK                         _______ _______ _______ _____ _____    ______ ____
ROOT
ATOM      1  C   UNL     1      33.234   0.853  26.291  0.00  0.00    -0.024 A 
ATOM      2  C   UNL     1      34.466   1.458  26.555  0.00  0.00    +0.000 A 
ATOM      3  C   UNL     1      34.702   2.064  27.790  0.00  0.00    +0.074 A 
ATOM      4  C   UNL     1      33.672   2.098  28.736  0.00  0.00    +0.008 A 
ATOM      5  C   UNL     1      32.436   1.496  28.465  0.00  0.00    -0.049 A 
ATOM      6  C   UNL     1      31.317   1.664  29.496  0.00  0.00    +0.058 C 
ATOM      7  C   UNL     1      29.939   1.215  28.947  0.00  0.00    +0.018 C 
ATOM      8  C   UNL     1      30.078  -0.196  28.313  0.00  0.00    +0.000 C 
ATOM      9  C   UNL     1      28.717  -0.890  27.961  0.00  0.00    -0.004 C 
ATOM     10  C   UNL     1      28.934  -2.302  27.305  0.00  0.00    +0.006 C 
ATOM     11  C   UNL     1      29.428  -3.371  28.331  0.00  0.00    -0.039 C 
ATOM     12  C   UNL     1      29.944  -2.191  26.123  0.00  0.00    -0.032 C 
ATOM     13  C   UNL     1      31.272  -1.494  26.512  0.00  0.00    +0.006 C 
ATOM     14  C   UNL     1      30.972  -0.066  27.044  0.00  0.00    +0.030 C 
ATOM     15  C   UNL     1      32.243   0.776  27.279  0.00  0.00    -0.048 A 
ENDROOT
BRANCH   3  16
ATOM     16  O   UNL     1      35.955   2.626  28.048  0.00  0.00    -0.339 OA
ATOM     17  H   UNL     1      36.052   2.979  28.926  0.00  0.00    +0.246 HD
ENDBRANCH   3  16
BRANCH   9  18
ATOM     18  C   UNL     1      28.023   0.027  26.902  0.00  0.00    +0.179 C 
BRANCH  18  19
ATOM     19  C   UNL     1      26.566  -0.052  26.898  0.00  0.00    +0.089 C 
ATOM     20  N   UNL     1      25.409  -0.108  26.888  0.00  0.00    -0.304 NA
ENDBRANCH  18  19
ENDBRANCH   9  18
BRANCH  10  21
ATOM     21  C   UNL     1      27.632  -2.744  26.653  0.00  0.00    +0.114 C 
BRANCH  21  22
ATOM     22  O   UNL     1      27.237  -3.970  26.418  0.00  0.00    -0.246 OA
ATOM     23  H   UNL     1      26.383  -3.952  26.001  0.00  0.00    +0.000 HD
ENDBRANCH  21  22
ENDBRANCH  10  21
TORSDOF 5
ENDMDL
MODEL 12
REMARK minimizedAffinity -5.4771657
REMARK minimizedRMSD -1
REMARK  Name = scaffold
REMARK  6 active torsions:
REMARK  status: ('A' for Active; 'I' for Inactive)
REMARK    1  A    between atoms: C_3  and  O_4
REMARK    2  A    between atoms: C_5  and  C_17
REMARK    3  A    between atoms: C_15  and  C_20
REMARK    4  A    between atoms: C_15  and  C_23
REMARK    5  A    between atoms: C_16  and  C_17
REMARK    6  A    between atoms: C_23  and  O_25
REMARK                            x       y       z     vdW  Elec       q    Type
REMARK                         _______ _______ _______ _____ _____    ______ ____
ROOT
ATOM      1  C   UNL     1      32.388  -4.661  22.841  0.00  0.00    -0.024 A 
ATOM      2  C   UNL     1      32.840  -5.023  21.569  0.00  0.00    +0.000 A 
ATOM      3  C   UNL     1      33.263  -4.044  20.669  0.00  0.00    +0.074 A 
ATOM      4  C   UNL     1      33.180  -2.698  21.042  0.00  0.00    +0.008 A 
ATOM      5  C   UNL     1      32.720  -2.339  22.315  0.00  0.00    -0.049 A 
ATOM      6  C   UNL     1      32.549  -0.850  22.622  0.00  0.00    +0.058 C 
ATOM      7  C   UNL     1      31.762  -0.605  23.935  0.00  0.00    +0.018 C 
ATOM      8  C   UNL     1      32.380  -1.469  25.068  0.00  0.00    +0.000 C 
ATOM      9  C   UNL     1      31.862  -1.124  26.507  0.00  0.00    -0.004 C 
ATOM     10  C   UNL     1      32.512  -2.050  27.598  0.00  0.00    +0.006 C 
ATOM     11  C   UNL     1      34.015  -1.712  27.854  0.00  0.00    -0.039 C 
ATOM     12  C   UNL     1      32.365  -3.546  27.185  0.00  0.00    -0.032 C 
ATOM     13  C   UNL     1      32.882  -3.843  25.755  0.00  0.00    +0.006 C 
ATOM     14  C   UNL     1      32.108  -2.966  24.732  0.00  0.00    +0.030 C 
ATOM     15  C   UNL     1      32.419  -3.326  23.264  0.00  0.00    -0.048 A 
ENDROOT
BRANCH   3  16
ATOM     16  O   UNL     1      33.752  -4.429  19.417  0.00  0.00    -0.339 OA
ATOM     17  H   UNL     1      34.062  -3.709  18.879  0.00  0.00    +0.246 HD
ENDBRANCH   3  16
BRANCH   9  18
ATOM     18  C   UNL     1      30.325  -1.406  26.495  0.00  0.00    +0.179 C 
BRANCH  18  19
ATOM     19  C   UNL     1      29.492  -0.208  26.523  0.00  0.00    +0.089 C 
ATOM     20  N   UNL     1      28.831   0.742  26.536  0.00  0.00    -0.304 NA
ENDBRANCH  18  19
ENDBRANCH   9  18
BRANCH  10  21
ATOM     21  C   UNL     1      31.708  -1.930  28.884  0.00  0.00    +0.114 C 
BRANCH  21  22
ATOM     22  O   UNL     1      31.548  -0.863  29.626  0.00  0.00    -0.246 OA
ATOM     23  H   UNL     1      30.997  -1.074  30.371  0.00  0.00    +0.000 HD
ENDBRANCH  21  22
ENDBRANCH  10  21
TORSDOF 5
ENDMDL
MODEL 13
REMARK minimizedAffinity -5.46478224
REMARK minimizedRMSD -1
REMARK  Name = scaffold
REMARK  6 active torsions:
REMARK  status: ('A' for Active; 'I' for Inactive)
REMARK    1  A    between atoms: C_3  and  O_4
REMARK    2  A    between atoms: C_5  and  C_17
REMARK    3  A    between atoms: C_15  and  C_20
REMARK    4  A    between atoms: C_15  and  C_23
REMARK    5  A    between atoms: C_16  and  C_17
REMARK    6  A    between atoms: C_23  and  O_25
REMARK                            x       y       z     vdW  Elec       q    Type
REMARK                         _______ _______ _______ _____ _____    ______ ____
ROOT
ATOM      1  C   UNL     1      31.431  -2.617  25.207  0.00  0.00    -0.024 A 
ATOM      2  C   UNL     1      32.600  -3.378  25.109  0.00  0.00    +0.000 A 
ATOM      3  C   UNL     1      33.408  -3.572  26.230  0.00  0.00    +0.074 A 
ATOM      4  C   UNL     1      33.056  -2.954  27.435  0.00  0.00    +0.008 A 
ATOM      5  C   UNL     1      31.888  -2.187  27.528  0.00  0.00    -0.049 A 
ATOM      6  C   UNL     1      31.618  -1.450  28.841  0.00  0.00    +0.058 C 
ATOM      7  C   UNL     1      30.470  -0.416  28.710  0.00  0.00    +0.018 C 
ATOM      8  C   UNL     1      29.243  -1.098  28.045  0.00  0.00    +0.000 C 
ATOM      9  C   UNL     1      27.922  -0.255  28.095  0.00  0.00    -0.004 C 
ATOM     10  C   UNL     1      26.731  -0.995  27.385  0.00  0.00    +0.006 C 
ATOM     11  C   UNL     1      26.206  -2.214  28.210  0.00  0.00    -0.039 C 
ATOM     12  C   UNL     1      27.163  -1.462  25.962  0.00  0.00    -0.032 C 
ATOM     13  C   UNL     1      28.476  -2.286  25.958  0.00  0.00    +0.006 C 
ATOM     14  C   UNL     1      29.622  -1.437  26.572  0.00  0.00    +0.030 C 
ATOM     15  C   UNL     1      31.010  -2.100  26.439  0.00  0.00    -0.048 A 
ENDROOT
BRANCH   3  16
ATOM     16  O   UNL     1      34.550  -4.371  26.121  0.00  0.00    -0.339 OA
ATOM     17  H   UNL     1      35.023  -4.491  26.937  0.00  0.00    +0.246 HD
ENDBRANCH   3  16
BRANCH   9  18
ATOM     18  C   UNL     1      28.213   1.056  27.295  0.00  0.00    +0.179 C 
BRANCH  18  19
ATOM     19  C   UNL     1      28.837   2.116  28.080  0.00  0.00    +0.089 C 
ATOM     20  N   UNL     1      29.333   2.963  28.696  0.00  0.00    -0.304 NA
ENDBRANCH  18  19
ENDBRANCH   9  18
BRANCH  10  21
ATOM     21  C   UNL     1      25.613   0.005  27.134  0.00  0.00    +0.114 C 
BRANCH  21  22
ATOM     22  O   UNL     1      24.364  -0.254  26.838  0.00  0.00    -0.246 OA
ATOM     23  H   UNL     1      23.887   0.561  26.735  0.00  0.00    +0.000 HD
ENDBRANCH  21  22
ENDBRANCH  10  21
TORSDOF 5
ENDMDL
MODEL 14
REMARK minimizedAffinity -5.29856634
REMARK minimizedRMSD -1
REMARK  Name = scaffold
REMARK  6 active torsions:
REMARK  status: ('A' for Active; 'I' for Inactive)
REMARK    1  A    between atoms: C_3  and  O_4
REMARK    2  A    between atoms: C_5  and  C_17
REMARK    3  A    between atoms: C_15  and  C_20
REMARK    4  A    between atoms: C_15  and  C_23
REMARK    5  A    between atoms: C_16  and  C_17
REMARK    6  A    between atoms: C_23  and  O_25
REMARK                            x       y       z     vdW  Elec       q    Type
REMARK                         _______ _______ _______ _____ _____    ______ ____
ROOT
ATOM      1  C   UNL     1      32.784  -3.864  25.991  0.00  0.00    -0.024 A 
ATOM      2  C   UNL     1      32.450  -3.634  27.328  0.00  0.00    +0.000 A 
ATOM      3  C   UNL     1      31.887  -2.417  27.713  0.00  0.00    +0.074 A 
ATOM      4  C   UNL     1      31.710  -1.417  26.751  0.00  0.00    +0.008 A 
ATOM      5  C   UNL     1      32.053  -1.649  25.412  0.00  0.00    -0.049 A 
ATOM      6  C   UNL     1      31.939  -0.480  24.431  0.00  0.00    +0.058 C 
ATOM      7  C   UNL     1      32.622  -0.782  23.073  0.00  0.00    +0.018 C 
ATOM      8  C   UNL     1      32.132  -2.162  22.552  0.00  0.00    +0.000 C 
ATOM      9  C   UNL     1      32.528  -2.476  21.068  0.00  0.00    -0.004 C 
ATOM     10  C   UNL     1      32.020  -3.894  20.617  0.00  0.00    +0.006 C 
ATOM     11  C   UNL     1      30.472  -3.939  20.411  0.00  0.00    -0.039 C 
ATOM     12  C   UNL     1      32.452  -4.971  21.657  0.00  0.00    -0.032 C 
ATOM     13  C   UNL     1      32.047  -4.619  23.111  0.00  0.00    +0.006 C 
ATOM     14  C   UNL     1      32.684  -3.259  23.511  0.00  0.00    +0.030 C 
ATOM     15  C   UNL     1      32.495  -2.914  25.003  0.00  0.00    -0.048 A 
ENDROOT
BRANCH   3  16
ATOM     16  O   UNL     1      31.521  -2.223  29.049  0.00  0.00    -0.339 OA
ATOM     17  H   UNL     1      31.104  -1.386  29.223  0.00  0.00    +0.246 HD
ENDBRANCH   3  16
BRANCH   9  18
ATOM     18  C   UNL     1      34.091  -2.494  21.029  0.00  0.00    +0.179 C 
BRANCH  18  19
ATOM     19  C   UNL     1      34.673  -1.800  19.886  0.00  0.00    +0.089 C 
ATOM     20  N   UNL     1      35.136  -1.257  18.973  0.00  0.00    -0.304 NA
ENDBRANCH  18  19
ENDBRANCH   9  18
BRANCH  10  21
ATOM     21  C   UNL     1      32.744  -4.288  19.338  0.00  0.00    +0.114 C 
BRANCH  21  22
ATOM     22  O   UNL     1      32.480  -3.890  18.119  0.00  0.00    -0.246 OA
ATOM     23  H   UNL     1      33.090  -4.295  17.514  0.00  0.00    +0.000 HD
ENDBRANCH  21  22
ENDBRANCH  10  21
TORSDOF 5
ENDMDL
MODEL 15
REMARK minimizedAffinity -4.85122681
REMARK minimizedRMSD -1
REMARK  Name = scaffold
REMARK  6 active torsions:
REMARK  status: ('A' for Active; 'I' for Inactive)
REMARK    1  A    between atoms: C_3  and  O_4
REMARK    2  A    between atoms: C_5  and  C_17
REMARK    3  A    between atoms: C_15  and  C_20
REMARK    4  A    between atoms: C_15  and  C_23
REMARK    5  A    between atoms: C_16  and  C_17
REMARK    6  A    between atoms: C_23  and  O_25
REMARK                            x       y       z     vdW  Elec       q    Type
REMARK                         _______ _______ _______ _____ _____    ______ ____
ROOT
ATOM      1  C   UNL     1      33.088   0.044  28.390  0.00  0.00    -0.024 A 
ATOM      2  C   UNL     1      34.381   0.561  28.274  0.00  0.00    +0.000 A 
ATOM      3  C   UNL     1      34.919   0.834  27.015  0.00  0.00    +0.074 A 
ATOM      4  C   UNL     1      34.164   0.537  25.876  0.00  0.00    +0.008 A 
ATOM      5  C   UNL     1      32.870   0.012  25.996  0.00  0.00    -0.049 A 
ATOM      6  C   UNL     1      32.140  -0.393  24.714  0.00  0.00    +0.058 C 
ATOM      7  C   UNL     1      30.862  -1.223  25.001  0.00  0.00    +0.018 C 
ATOM      8  C   UNL     1      30.008  -0.488  26.070  0.00  0.00    +0.000 C 
ATOM      9  C   UNL     1      28.564  -1.069  26.262  0.00  0.00    -0.004 C 
ATOM     10  C   UNL     1      27.766  -0.292  27.372  0.00  0.00    +0.006 C 
ATOM     11  C   UNL     1      27.334   1.137  26.912  0.00  0.00    -0.039 C 
ATOM     12  C   UNL     1      28.618  -0.198  28.674  0.00  0.00    -0.032 C 
ATOM     13  C   UNL     1      30.039   0.374  28.439  0.00  0.00    +0.006 C 
ATOM     14  C   UNL     1      30.793  -0.518  27.416  0.00  0.00    +0.030 C 
ATOM     15  C   UNL     1      32.281  -0.139  27.259  0.00  0.00    -0.048 A 
ENDROOT
BRANCH   3  16
ATOM     16  O   UNL     1      36.198   1.390  26.923  0.00  0.00    -0.339 OA
ATOM     17  H   UNL     1      36.476   1.588  26.036  0.00  0.00    +0.246 HD
ENDBRANCH   3  16
BRANCH   9  18
ATOM     18  C   UNL     1      28.748  -2.542  26.749  0.00  0.00    +0.179 C 
BRANCH  18  19
ATOM     19  C   UNL     1      30.119  -3.037  26.670  0.00  0.00    +0.089 C 
ATOM     20  N   UNL     1      31.210  -3.420  26.607  0.00  0.00    -0.304 NA
ENDBRANCH  18  19
ENDBRANCH   9  18
BRANCH  10  21
ATOM     21  C   UNL     1      26.552  -1.118  27.770  0.00  0.00    +0.114 C 
BRANCH  21  22
ATOM     22  O   UNL     1      25.325  -0.991  27.334  0.00  0.00    -0.246 OA
ATOM     23  H   UNL     1      24.771  -1.639  27.752  0.00  0.00    +0.000 HD
ENDBRANCH  21  22
ENDBRANCH  10  21
TORSDOF 5
ENDMDL
MODEL 16
REMARK minimizedAffinity -4.75430822
REMARK minimizedRMSD -1
REMARK  Name = scaffold
REMARK  6 active torsions:
REMARK  status: ('A' for Active; 'I' for Inactive)
REMARK    1  A    between atoms: C_3  and  O_4
REMARK    2  A    between atoms: C_5  and  C_17
REMARK    3  A    between atoms: C_15  and  C_20
REMARK    4  A    between atoms: C_15  and  C_23
REMARK    5  A    between atoms: C_16  and  C_17
REMARK    6  A    between atoms: C_23  and  O_25
REMARK                            x       y       z     vdW  Elec       q    Type
REMARK                         _______ _______ _______ _____ _____    ______ ____
ROOT
ATOM      1  C   UNL     1      34.603  -0.505  17.059  0.00  0.00    -0.024 A 
ATOM      2  C   UNL     1      35.509   0.059  16.157  0.00  0.00    +0.000 A 
ATOM      3  C   UNL     1      36.876   0.058  16.439  0.00  0.00    +0.074 A 
ATOM      4  C   UNL     1      37.316  -0.472  17.657  0.00  0.00    +0.008 A 
ATOM      5  C   UNL     1      36.404  -1.030  18.561  0.00  0.00    -0.049 A 
ATOM      6  C   UNL     1      36.935  -1.492  19.920  0.00  0.00    +0.058 C 
ATOM      7  C   UNL     1      35.795  -1.807  20.922  0.00  0.00    +0.018 C 
ATOM      8  C   UNL     1      34.761  -2.744  20.239  0.00  0.00    +0.000 C 
ATOM      9  C   UNL     1      33.699  -3.361  21.213  0.00  0.00    -0.004 C 
ATOM     10  C   UNL     1      32.674  -4.279  20.451  0.00  0.00    +0.006 C 
ATOM     11  C   UNL     1      33.308  -5.628  19.985  0.00  0.00    -0.039 C 
ATOM     12  C   UNL     1      32.083  -3.517  19.227  0.00  0.00    -0.032 C 
ATOM     13  C   UNL     1      33.166  -2.916  18.294  0.00  0.00    +0.006 C 
ATOM     14  C   UNL     1      34.061  -1.938  19.104  0.00  0.00    +0.030 C 
ATOM     15  C   UNL     1      35.050  -1.147  18.221  0.00  0.00    -0.048 A 
ENDROOT
BRANCH   3  16
ATOM     16  O   UNL     1      37.769   0.590  15.504  0.00  0.00    -0.339 OA
ATOM     17  H   UNL     1      38.684   0.512  15.749  0.00  0.00    +0.246 HD
ENDBRANCH   3  16
BRANCH   9  18
ATOM     18  C   UNL     1      32.906  -2.156  21.813  0.00  0.00    +0.179 C 
BRANCH  18  19
ATOM     19  C   UNL     1      32.617  -2.274  23.238  0.00  0.00    +0.089 C 
ATOM     20  N   UNL     1      32.395  -2.363  24.372  0.00  0.00    -0.304 NA
ENDBRANCH  18  19
ENDBRANCH   9  18
BRANCH  10  21
ATOM     21  C   UNL     1      31.477  -4.532  21.356  0.00  0.00    +0.114 C 
BRANCH  21  22
ATOM     22  O   UNL     1      31.081  -5.678  21.849  0.00  0.00    -0.246 OA
ATOM     23  H   UNL     1      30.305  -5.542  22.381  0.00  0.00    +0.000 HD
ENDBRANCH  21  22
ENDBRANCH  10  21
TORSDOF 5
ENDMDL
MODEL 17
REMARK minimizedAffinity -4.51593304
REMARK minimizedRMSD -1
REMARK  Name = scaffold
REMARK  6 active torsions:
REMARK  status: ('A' for Active; 'I' for Inactive)
REMARK    1  A    between atoms: C_3  and  O_4
REMARK    2  A    between atoms: C_5  and  C_17
REMARK    3  A    between atoms: C_15  and  C_20
REMARK    4  A    between atoms: C_15  and  C_23
REMARK    5  A    between atoms: C_16  and  C_17
REMARK    6  A    between atoms: C_23  and  O_25
REMARK                            x       y       z     vdW  Elec       q    Type
REMARK                         _______ _______ _______ _____ _____    ______ ____
ROOT
ATOM      1  C   UNL     1      28.293   0.472  27.046  0.00  0.00    -0.024 A 
ATOM      2  C   UNL     1      26.909   0.374  27.217  0.00  0.00    +0.000 A 
ATOM      3  C   UNL     1      26.317  -0.867  27.456  0.00  0.00    +0.074 A 
ATOM      4  C   UNL     1      27.122  -2.010  27.474  0.00  0.00    +0.008 A 
ATOM      5  C   UNL     1      28.508  -1.909  27.296  0.00  0.00    -0.049 A 
ATOM      6  C   UNL     1      29.316  -3.206  27.216  0.00  0.00    +0.058 C 
ATOM      7  C   UNL     1      30.767  -2.966  26.726  0.00  0.00    +0.018 C 
ATOM      8  C   UNL     1      31.401  -1.815  27.554  0.00  0.00    +0.000 C 
ATOM      9  C   UNL     1      32.947  -1.643  27.355  0.00  0.00    -0.004 C 
ATOM     10  C   UNL     1      33.515  -0.449  28.205  0.00  0.00    +0.006 C 
ATOM     11  C   UNL     1      33.558  -0.768  29.734  0.00  0.00    -0.039 C 
ATOM     12  C   UNL     1      32.671   0.836  27.952  0.00  0.00    -0.032 C 
ATOM     13  C   UNL     1      31.149   0.621  28.153  0.00  0.00    +0.006 C 
ATOM     14  C   UNL     1      30.653  -0.496  27.195  0.00  0.00    +0.030 C 
ATOM     15  C   UNL     1      29.117  -0.652  27.186  0.00  0.00    -0.048 A 
ENDROOT
BRANCH   3  16
ATOM     16  O   UNL     1      24.936  -0.937  27.666  0.00  0.00    -0.339 OA
ATOM     17  H   UNL     1      24.615  -1.810  27.866  0.00  0.00    +0.246 HD
ENDBRANCH   3  16
BRANCH   9  18
ATOM     18  C   UNL     1      33.155  -1.296  25.845  0.00  0.00    +0.179 C 
BRANCH  18  19
ATOM     19  C   UNL     1      33.111   0.130  25.543  0.00  0.00    +0.089 C 
ATOM     20  N   UNL     1      33.067   1.262  25.300  0.00  0.00    -0.304 NA
ENDBRANCH  18  19
ENDBRANCH   9  18
BRANCH  10  21
ATOM     21  C   UNL     1      34.904  -0.100  27.690  0.00  0.00    +0.114 C 
BRANCH  21  22
ATOM     22  O   UNL     1      35.805   0.647  28.276  0.00  0.00    -0.246 OA
ATOM     23  H   UNL     1      36.581   0.696  27.730  0.00  0.00    +0.000 HD
ENDBRANCH  21  22
ENDBRANCH  10  21
TORSDOF 5
ENDMDL
MODEL 18
REMARK minimizedAffinity -4.10392666
REMARK minimizedRMSD -1
REMARK  Name = scaffold
REMARK  6 active torsions:
REMARK  status: ('A' for Active; 'I' for Inactive)
REMARK    1  A    between atoms: C_3  and  O_4
REMARK    2  A    between atoms: C_5  and  C_17
REMARK    3  A    between atoms: C_15  and  C_20
REMARK    4  A    between atoms: C_15  and  C_23
REMARK    5  A    between atoms: C_16  and  C_17
REMARK    6  A    between atoms: C_23  and  O_25
REMARK                            x       y       z     vdW  Elec       q    Type
REMARK                         _______ _______ _______ _____ _____    ______ ____
ROOT
ATOM      1  C   UNL     1      30.559   0.577  29.022  0.00  0.00    -0.024 A 
ATOM      2  C   UNL     1      30.695   1.399  30.143  0.00  0.00    +0.000 A 
ATOM      3  C   UNL     1      31.958   1.654  30.679  0.00  0.00    +0.074 A 
ATOM      4  C   UNL     1      33.074   1.036  30.106  0.00  0.00    +0.008 A 
ATOM      5  C   UNL     1      32.934   0.207  28.986  0.00  0.00    -0.049 A 
ATOM      6  C   UNL     1      34.177  -0.524  28.475  0.00  0.00    +0.058 C 
ATOM      7  C   UNL     1      33.830  -1.621  27.436  0.00  0.00    +0.018 C 
ATOM      8  C   UNL     1      32.898  -1.017  26.350  0.00  0.00    +0.000 C 
ATOM      9  C   UNL     1      32.684  -1.931  25.094  0.00  0.00    -0.004 C 
ATOM     10  C   UNL     1      31.715  -1.267  24.049  0.00  0.00    +0.006 C 
ATOM     11  C   UNL     1      32.375  -0.067  23.297  0.00  0.00    -0.039 C 
ATOM     12  C   UNL     1      30.407  -0.800  24.755  0.00  0.00    -0.032 C 
ATOM     13  C   UNL     1      30.663   0.095  25.995  0.00  0.00    +0.006 C 
ATOM     14  C   UNL     1      31.533  -0.680  27.022  0.00  0.00    +0.030 C 
ATOM     15  C   UNL     1      31.684   0.056  28.370  0.00  0.00    -0.048 A 
ENDROOT
BRANCH   3  16
ATOM     16  O   UNL     1      32.076   2.513  31.776  0.00  0.00    -0.339 OA
ATOM     17  H   UNL     1      32.971   2.671  32.055  0.00  0.00    +0.246 HD
ENDBRANCH   3  16
BRANCH   9  18
ATOM     18  C   UNL     1      32.001  -3.236  25.616  0.00  0.00    +0.179 C 
BRANCH  18  19
ATOM     19  C   UNL     1      32.906  -4.165  26.284  0.00  0.00    +0.089 C 
ATOM     20  N   UNL     1      33.618  -4.909  26.814  0.00  0.00    -0.304 NA
ENDBRANCH  18  19
ENDBRANCH   9  18
BRANCH  10  21
ATOM     21  C   UNL     1      31.256  -2.331  23.063  0.00  0.00    +0.114 C 
BRANCH  21  22
ATOM     22  O   UNL     1      31.935  -2.838  22.065  0.00  0.00    -0.246 OA
ATOM     23  H   UNL     1      31.403  -3.484  21.615  0.00  0.00    +0.000 HD
ENDBRANCH  21  22
ENDBRANCH  10  21
TORSDOF 5
ENDMDL
MODEL 19
REMARK minimizedAffinity -2.32549596
REMARK minimizedRMSD -1
REMARK  Name = scaffold
REMARK  6 active torsions:
REMARK  status: ('A' for Active; 'I' for Inactive)
REMARK    1  A    between atoms: C_3  and  O_4
REMARK    2  A    between atoms: C_5  and  C_17
REMARK    3  A    between atoms: C_15  and  C_20
REMARK    4  A    between atoms: C_15  and  C_23
REMARK    5  A    between atoms: C_16  and  C_17
REMARK    6  A    between atoms: C_23  and  O_25
REMARK                            x       y       z     vdW  Elec       q    Type
REMARK                         _______ _______ _______ _____ _____    ______ ____
ROOT
ATOM      1  C   UNL     1      34.534   2.619  16.545  0.00  0.00    -0.024 A 
ATOM      2  C   UNL     1      34.754   3.754  15.759  0.00  0.00    +0.000 A 
ATOM      3  C   UNL     1      35.955   3.905  15.064  0.00  0.00    +0.074 A 
ATOM      4  C   UNL     1      36.948   2.931  15.206  0.00  0.00    +0.008 A 
ATOM      5  C   UNL     1      36.727   1.799  16.000  0.00  0.00    -0.049 A 
ATOM      6  C   UNL     1      37.891   0.826  16.202  0.00  0.00    +0.058 C 
ATOM      7  C   UNL     1      37.610  -0.206  17.324  0.00  0.00    +0.018 C 
ATOM      8  C   UNL     1      36.216  -0.849  17.086  0.00  0.00    +0.000 C 
ATOM      9  C   UNL     1      35.914  -2.099  17.983  0.00  0.00    -0.004 C 
ATOM     10  C   UNL     1      34.481  -2.684  17.704  0.00  0.00    +0.006 C 
ATOM     11  C   UNL     1      34.389  -3.415  16.327  0.00  0.00    -0.039 C 
ATOM     12  C   UNL     1      33.417  -1.547  17.776  0.00  0.00    -0.032 C 
ATOM     13  C   UNL     1      33.758  -0.329  16.880  0.00  0.00    +0.006 C 
ATOM     14  C   UNL     1      35.135   0.253  17.299  0.00  0.00    +0.030 C 
ATOM     15  C   UNL     1      35.475   1.582  16.593  0.00  0.00    -0.048 A 
ENDROOT
BRANCH   3  16
ATOM     16  O   UNL     1      36.138   5.027  14.250  0.00  0.00    -0.339 OA
ATOM     17  H   UNL     1      36.962   5.036  13.776  0.00  0.00    +0.246 HD
ENDBRANCH   3  16
BRANCH   9  18
ATOM     18  C   UNL     1      35.943  -1.591  19.461  0.00  0.00    +0.179 C 
BRANCH  18  19
ATOM     19  C   UNL     1      37.163  -1.923  20.189  0.00  0.00    +0.089 C 
ATOM     20  N   UNL     1      38.131  -2.194  20.763  0.00  0.00    -0.304 NA
ENDBRANCH  18  19
ENDBRANCH   9  18
BRANCH  10  21
ATOM     21  C   UNL     1      34.108  -3.626  18.839  0.00  0.00    +0.114 C 
BRANCH  21  22
ATOM     22  O   UNL     1      32.924  -4.112  19.113  0.00  0.00    -0.246 OA
ATOM     23  H   UNL     1      32.981  -4.674  19.877  0.00  0.00    +0.000 HD
ENDBRANCH  21  22
ENDBRANCH  10  21
TORSDOF 5
ENDMDL
