MODEL 1
REMARK minimizedAffinity -8.37887287
REMARK minimizedRMSD -1
REMARK  Name = scaffold
REMARK  6 active torsions:
REMARK  status: ('A' for Active; 'I' for Inactive)
REMARK    1  A    between atoms: C_3  and  O_4
REMARK    2  A    between atoms: C_5  and  C_17
REMARK    3  A    between atoms: C_15  and  C_20
REMARK    4  A    between atoms: C_15  and  C_23
REMARK    5  A    between atoms: C_16  and  C_17
REMARK    6  A    between atoms: C_23  and  O_25
REMARK                            x       y       z     vdW  Elec       q    Type
REMARK                         _______ _______ _______ _____ _____    ______ ____
ROOT
ATOM      1  C   UNL     1      27.524  -1.857  28.032  0.00  0.00    -0.024 A 
ATOM      2  C   UNL     1      26.156  -1.688  27.802  0.00  0.00    +0.000 A 
ATOM      3  C   UNL     1      25.678  -0.501  27.244  0.00  0.00    +0.074 A 
ATOM      4  C   UNL     1      26.582   0.529  26.966  0.00  0.00    +0.008 A 
ATOM      5  C   UNL     1      27.952   0.359  27.204  0.00  0.00    -0.049 A 
ATOM      6  C   UNL     1      28.873   1.561  26.982  0.00  0.00    +0.058 C 
ATOM      7  C   UNL     1      30.293   1.329  27.559  0.00  0.00    +0.018 C 
ATOM      8  C   UNL     1      30.828  -0.042  27.062  0.00  0.00    +0.000 C 
ATOM      9  C   UNL     1      32.350  -0.288  27.343  0.00  0.00    -0.004 C 
ATOM     10  C   UNL     1      32.816  -1.701  26.834  0.00  0.00    +0.006 C 
ATOM     11  C   UNL     1      32.898  -1.780  25.276  0.00  0.00    -0.039 C 
ATOM     12  C   UNL     1      31.859  -2.805  27.374  0.00  0.00    -0.032 C 
ATOM     13  C   UNL     1      30.364  -2.520  27.082  0.00  0.00    +0.006 C 
ATOM     14  C   UNL     1      29.962  -1.160  27.716  0.00  0.00    +0.030 C 
ATOM     15  C   UNL     1      28.447  -0.878  27.641  0.00  0.00    -0.048 A 
ENDROOT
BRANCH   3  16
ATOM     16  O   UNL     1      24.311  -0.369  26.983  0.00  0.00    -0.339 OA
ATOM     17  H   UNL     1      24.070   0.449  26.563  0.00  0.00    +0.246 HD
ENDBRANCH   3  16
BRANCH   9  18
ATOM     18  C   UNL     1      32.516  -0.262  28.897  0.00  0.00    +0.179 C 
BRANCH  18  19
ATOM     19  C   UNL     1      33.358   0.820  29.396  0.00  0.00    +0.089 C 
ATOM     20  N   UNL     1      34.027   1.675  29.800  0.00  0.00    -0.304 NA
ENDBRANCH  18  19
ENDBRANCH   9  18
BRANCH  10  21
ATOM     21  C   UNL     1      34.164  -2.026  27.460  0.00  0.00    +0.114 C 
BRANCH  21  22
ATOM     22  O   UNL     1      35.324  -1.491  27.174  0.00  0.00    -0.246 OA
ATOM     23  H   UNL     1      35.997  -1.883  27.719  0.00  0.00    +0.000 HD
ENDBRANCH  21  22
ENDBRANCH  10  21
TORSDOF 5
ENDMDL
MODEL 2
REMARK minimizedAffinity -8.35499287
REMARK minimizedRMSD -1
REMARK  Name = scaffold
REMARK  6 active torsions:
REMARK  status: ('A' for Active; 'I' for Inactive)
REMARK    1  A    between atoms: C_3  and  O_4
REMARK    2  A    between atoms: C_5  and  C_17
REMARK    3  A    between atoms: C_15  and  C_20
REMARK    4  A    between atoms: C_15  and  C_23
REMARK    5  A    between atoms: C_16  and  C_17
REMARK    6  A    between atoms: C_23  and  O_25
REMARK                            x       y       z     vdW  Elec       q    Type
REMARK                         _______ _______ _______ _____ _____    ______ ____
ROOT
ATOM      1  C   UNL     1      28.133   0.313  26.440  0.00  0.00    -0.024 A 
ATOM      2  C   UNL     1      26.755   0.222  26.652  0.00  0.00    +0.000 A 
ATOM      3  C   UNL     1      26.226  -0.833  27.397  0.00  0.00    +0.074 A 
ATOM      4  C   UNL     1      27.091  -1.819  27.883  0.00  0.00    +0.008 A 
ATOM      5  C   UNL     1      28.471  -1.729  27.663  0.00  0.00    -0.049 A 
ATOM      6  C   UNL     1      29.348  -2.894  28.125  0.00  0.00    +0.058 C 
ATOM      7  C   UNL     1      30.790  -2.805  27.562  0.00  0.00    +0.018 C 
ATOM      8  C   UNL     1      31.352  -1.381  27.824  0.00  0.00    +0.000 C 
ATOM      9  C   UNL     1      32.889  -1.228  27.553  0.00  0.00    -0.004 C 
ATOM     10  C   UNL     1      33.383   0.241  27.817  0.00  0.00    +0.006 C 
ATOM     11  C   UNL     1      33.425   0.596  29.337  0.00  0.00    -0.039 C 
ATOM     12  C   UNL     1      32.475   1.255  27.058  0.00  0.00    -0.032 C 
ATOM     13  C   UNL     1      30.964   1.064  27.348  0.00  0.00    +0.006 C 
ATOM     14  C   UNL     1      30.539  -0.376  26.954  0.00  0.00    +0.030 C 
ATOM     15  C   UNL     1      29.014  -0.603  27.029  0.00  0.00    -0.048 A 
ENDROOT
BRANCH   3  16
ATOM     16  O   UNL     1      24.849  -0.883  27.633  0.00  0.00    -0.339 OA
ATOM     17  H   UNL     1      24.572  -1.606  28.185  0.00  0.00    +0.246 HD
ENDBRANCH   3  16
BRANCH   9  18
ATOM     18  C   UNL     1      33.096  -1.535  26.034  0.00  0.00    +0.179 C 
BRANCH  18  19
ATOM     19  C   UNL     1      33.228  -2.953  25.718  0.00  0.00    +0.089 C 
ATOM     20  N   UNL     1      33.324  -4.081  25.472  0.00  0.00    -0.304 NA
ENDBRANCH  18  19
ENDBRANCH   9  18
BRANCH  10  21
ATOM     21  C   UNL     1      34.757   0.416  27.187  0.00  0.00    +0.114 C 
BRANCH  21  22
ATOM     22  O   UNL     1      35.423   1.532  27.026  0.00  0.00    -0.246 OA
ATOM     23  H   UNL     1      36.254   1.346  26.604  0.00  0.00    +0.000 HD
ENDBRANCH  21  22
ENDBRANCH  10  21
TORSDOF 5
ENDMDL
MODEL 3
REMARK minimizedAffinity -7.15932989
REMARK minimizedRMSD -1
REMARK  Name = scaffold
REMARK  6 active torsions:
REMARK  status: ('A' for Active; 'I' for Inactive)
REMARK    1  A    between atoms: C_3  and  O_4
REMARK    2  A    between atoms: C_5  and  C_17
REMARK    3  A    between atoms: C_15  and  C_20
REMARK    4  A    between atoms: C_15  and  C_23
REMARK    5  A    between atoms: C_16  and  C_17
REMARK    6  A    between atoms: C_23  and  O_25
REMARK                            x       y       z     vdW  Elec       q    Type
REMARK                         _______ _______ _______ _____ _____    ______ ____
ROOT
ATOM      1  C   UNL     1      33.924  -0.497  29.027  0.00  0.00    -0.024 A 
ATOM      2  C   UNL     1      35.319  -0.548  28.956  0.00  0.00    +0.000 A 
ATOM      3  C   UNL     1      35.946  -1.100  27.838  0.00  0.00    +0.074 A 
ATOM      4  C   UNL     1      35.158  -1.643  26.818  0.00  0.00    +0.008 A 
ATOM      5  C   UNL     1      33.760  -1.596  26.896  0.00  0.00    -0.049 A 
ATOM      6  C   UNL     1      32.957  -2.304  25.802  0.00  0.00    +0.058 C 
ATOM      7  C   UNL     1      31.455  -2.431  26.162  0.00  0.00    +0.018 C 
ATOM      8  C   UNL     1      30.920  -1.044  26.613  0.00  0.00    +0.000 C 
ATOM      9  C   UNL     1      29.361  -0.960  26.748  0.00  0.00    -0.004 C 
ATOM     10  C   UNL     1      28.893   0.462  27.228  0.00  0.00    +0.006 C 
ATOM     11  C   UNL     1      29.043   1.549  26.115  0.00  0.00    -0.039 C 
ATOM     12  C   UNL     1      29.690   0.887  28.498  0.00  0.00    -0.032 C 
ATOM     13  C   UNL     1      31.226   0.782  28.324  0.00  0.00    +0.006 C 
ATOM     14  C   UNL     1      31.608  -0.679  27.962  0.00  0.00    +0.030 C 
ATOM     15  C   UNL     1      33.132  -0.926  27.954  0.00  0.00    -0.048 A 
ENDROOT
BRANCH   3  16
ATOM     16  O   UNL     1      37.342  -1.104  27.768  0.00  0.00    -0.339 OA
ATOM     17  H   UNL     1      37.692  -1.456  26.957  0.00  0.00    +0.246 HD
ENDBRANCH   3  16
BRANCH   9  18
ATOM     18  C   UNL     1      28.964  -1.991  27.854  0.00  0.00    +0.179 C 
BRANCH  18  19
ATOM     19  C   UNL     1      28.270  -3.173  27.356  0.00  0.00    +0.089 C 
ATOM     20  N   UNL     1      27.724  -4.112  26.953  0.00  0.00    -0.304 NA
ENDBRANCH  18  19
ENDBRANCH   9  18
BRANCH  10  21
ATOM     21  C   UNL     1      27.449   0.371  27.697  0.00  0.00    +0.114 C 
BRANCH  21  22
ATOM     22  O   UNL     1      26.374   0.283  26.954  0.00  0.00    -0.246 OA
ATOM     23  H   UNL     1      25.606   0.240  27.512  0.00  0.00    +0.000 HD
ENDBRANCH  21  22
ENDBRANCH  10  21
TORSDOF 5
ENDMDL
MODEL 4
REMARK minimizedAffinity -6.92029762
REMARK minimizedRMSD -1
REMARK  Name = scaffold
REMARK  6 active torsions:
REMARK  status: ('A' for Active; 'I' for Inactive)
REMARK    1  A    between atoms: C_3  and  O_4
REMARK    2  A    between atoms: C_5  and  C_17
REMARK    3  A    between atoms: C_15  and  C_20
REMARK    4  A    between atoms: C_15  and  C_23
REMARK    5  A    between atoms: C_16  and  C_17
REMARK    6  A    between atoms: C_23  and  O_25
REMARK                            x       y       z     vdW  Elec       q    Type
REMARK                         _______ _______ _______ _____ _____    ______ ____
ROOT
ATOM      1  C   UNL     1      31.776  -1.609  23.205  0.00  0.00    -0.024 A 
ATOM      2  C   UNL     1      32.073  -2.597  22.262  0.00  0.00    +0.000 A 
ATOM      3  C   UNL     1      32.564  -3.837  22.675  0.00  0.00    +0.074 A 
ATOM      4  C   UNL     1      32.798  -4.054  24.036  0.00  0.00    +0.008 A 
ATOM      5  C   UNL     1      32.506  -3.059  24.977  0.00  0.00    -0.049 A 
ATOM      6  C   UNL     1      32.887  -3.318  26.437  0.00  0.00    +0.058 C 
ATOM      7  C   UNL     1      32.785  -2.040  27.308  0.00  0.00    +0.018 C 
ATOM      8  C   UNL     1      31.403  -1.371  27.072  0.00  0.00    +0.000 C 
ATOM      9  C   UNL     1      31.053  -0.225  28.082  0.00  0.00    -0.004 C 
ATOM     10  C   UNL     1      29.653   0.419  27.770  0.00  0.00    +0.006 C 
ATOM     11  C   UNL     1      28.463  -0.524  28.137  0.00  0.00    -0.039 C 
ATOM     12  C   UNL     1      29.572   0.818  26.266  0.00  0.00    -0.032 C 
ATOM     13  C   UNL     1      29.932  -0.341  25.302  0.00  0.00    +0.006 C 
ATOM     14  C   UNL     1      31.371  -0.840  25.607  0.00  0.00    +0.030 C 
ATOM     15  C   UNL     1      31.891  -1.864  24.577  0.00  0.00    -0.048 A 
ENDROOT
BRANCH   3  16
ATOM     16  O   UNL     1      32.815  -4.826  21.719  0.00  0.00    -0.339 OA
ATOM     17  H   UNL     1      33.105  -5.656  22.082  0.00  0.00    +0.246 HD
ENDBRANCH   3  16
BRANCH   9  18
ATOM     18  C   UNL     1      32.141   0.879  27.883  0.00  0.00    +0.179 C 
BRANCH  18  19
ATOM     19  C   UNL     1      32.910   1.191  29.083  0.00  0.00    +0.089 C 
ATOM     20  N   UNL     1      33.524   1.447  30.031  0.00  0.00    -0.304 NA
ENDBRANCH  18  19
ENDBRANCH   9  18
BRANCH  10  21
ATOM     21  C   UNL     1      29.543   1.738  28.520  0.00  0.00    +0.114 C 
BRANCH  21  22
ATOM     22  O   UNL     1      28.542   2.583  28.504  0.00  0.00    -0.246 OA
ATOM     23  H   UNL     1      28.743   3.323  29.065  0.00  0.00    +0.000 HD
ENDBRANCH  21  22
ENDBRANCH  10  21
TORSDOF 5
ENDMDL
MODEL 5
REMARK minimizedAffinity -6.8859024
REMARK minimizedRMSD -1
REMARK  Name = scaffold
REMARK  6 active torsions:
REMARK  status: ('A' for Active; 'I' for Inactive)
REMARK    1  A    between atoms: C_3  and  O_4
REMARK    2  A    between atoms: C_5  and  C_17
REMARK    3  A    between atoms: C_15  and  C_20
REMARK    4  A    between atoms: C_15  and  C_23
REMARK    5  A    between atoms: C_16  and  C_17
REMARK    6  A    between atoms: C_23  and  O_25
REMARK                            x       y       z     vdW  Elec       q    Type
REMARK                         _______ _______ _______ _____ _____    ______ ____
ROOT
ATOM      1  C   UNL     1      32.194  -1.599  23.275  0.00  0.00    -0.024 A 
ATOM      2  C   UNL     1      32.077  -2.537  22.246  0.00  0.00    +0.000 A 
ATOM      3  C   UNL     1      32.249  -3.896  22.510  0.00  0.00    +0.074 A 
ATOM      4  C   UNL     1      32.587  -4.297  23.807  0.00  0.00    +0.008 A 
ATOM      5  C   UNL     1      32.710  -3.354  24.835  0.00  0.00    -0.049 A 
ATOM      6  C   UNL     1      33.188  -3.843  26.204  0.00  0.00    +0.058 C 
ATOM      7  C   UNL     1      33.563  -2.674  27.150  0.00  0.00    +0.018 C 
ATOM      8  C   UNL     1      32.406  -1.637  27.161  0.00  0.00    +0.000 C 
ATOM      9  C   UNL     1      32.525  -0.540  28.275  0.00  0.00    -0.004 C 
ATOM     10  C   UNL     1      31.335   0.485  28.213  0.00  0.00    +0.006 C 
ATOM     11  C   UNL     1      29.986  -0.132  28.702  0.00  0.00    -0.039 C 
ATOM     12  C   UNL     1      31.176   1.032  26.762  0.00  0.00    -0.032 C 
ATOM     13  C   UNL     1      31.068  -0.085  25.693  0.00  0.00    +0.006 C 
ATOM     14  C   UNL     1      32.336  -0.980  25.750  0.00  0.00    +0.030 C 
ATOM     15  C   UNL     1      32.409  -2.005  24.598  0.00  0.00    -0.048 A 
ENDROOT
BRANCH   3  16
ATOM     16  O   UNL     1      32.087  -4.822  21.475  0.00  0.00    -0.339 OA
ATOM     17  H   UNL     1      32.176  -5.730  21.744  0.00  0.00    +0.246 HD
ENDBRANCH   3  16
BRANCH   9  18
ATOM     18  C   UNL     1      33.845   0.242  27.976  0.00  0.00    +0.179 C 
BRANCH  18  19
ATOM     19  C   UNL     1      34.914   0.013  28.941  0.00  0.00    +0.089 C 
ATOM     20  N   UNL     1      35.765  -0.177  29.704  0.00  0.00    -0.304 NA
ENDBRANCH  18  19
ENDBRANCH   9  18
BRANCH  10  21
ATOM     21  C   UNL     1      31.698   1.708  29.043  0.00  0.00    +0.114 C 
BRANCH  21  22
ATOM     22  O   UNL     1      31.803   1.783  30.346  0.00  0.00    -0.246 OA
ATOM     23  H   UNL     1      32.043   2.668  30.593  0.00  0.00    +0.000 HD
ENDBRANCH  21  22
ENDBRANCH  10  21
TORSDOF 5
ENDMDL
MODEL 6
REMARK minimizedAffinity -6.5459342
REMARK minimizedRMSD -1
REMARK  Name = scaffold
REMARK  6 active torsions:
REMARK  status: ('A' for Active; 'I' for Inactive)
REMARK    1  A    between atoms: C_3  and  O_4
REMARK    2  A    between atoms: C_5  and  C_17
REMARK    3  A    between atoms: C_15  and  C_20
REMARK    4  A    between atoms: C_15  and  C_23
REMARK    5  A    between atoms: C_16  and  C_17
REMARK    6  A    between atoms: C_23  and  O_25
REMARK                            x       y       z     vdW  Elec       q    Type
REMARK                         _______ _______ _______ _____ _____    ______ ____
ROOT
ATOM      1  C   UNL     1      32.373  -3.391  17.754  0.00  0.00    -0.024 A 
ATOM      2  C   UNL     1      31.103  -3.916  18.007  0.00  0.00    +0.000 A 
ATOM      3  C   UNL     1      30.577  -3.892  19.299  0.00  0.00    +0.074 A 
ATOM      4  C   UNL     1      31.358  -3.380  20.340  0.00  0.00    +0.008 A 
ATOM      5  C   UNL     1      32.634  -2.860  20.084  0.00  0.00    -0.049 A 
ATOM      6  C   UNL     1      33.480  -2.417  21.279  0.00  0.00    +0.058 C 
ATOM      7  C   UNL     1      34.956  -2.148  20.889  0.00  0.00    +0.018 C 
ATOM      8  C   UNL     1      34.992  -1.219  19.644  0.00  0.00    +0.000 C 
ATOM      9  C   UNL     1      36.410  -0.646  19.301  0.00  0.00    -0.004 C 
ATOM     10  C   UNL     1      36.376   0.266  18.020  0.00  0.00    +0.006 C 
ATOM     11  C   UNL     1      35.677   1.638  18.279  0.00  0.00    -0.039 C 
ATOM     12  C   UNL     1      35.666  -0.482  16.851  0.00  0.00    -0.032 C 
ATOM     13  C   UNL     1      34.271  -1.038  17.235  0.00  0.00    +0.006 C 
ATOM     14  C   UNL     1      34.415  -2.014  18.435  0.00  0.00    +0.030 C 
ATOM     15  C   UNL     1      33.109  -2.765  18.769  0.00  0.00    -0.048 A 
ENDROOT
BRANCH   3  16
ATOM     16  O   UNL     1      29.287  -4.384  19.523  0.00  0.00    -0.339 OA
ATOM     17  H   UNL     1      28.983  -4.292  20.420  0.00  0.00    +0.246 HD
ENDBRANCH   3  16
BRANCH   9  18
ATOM     18  C   UNL     1      37.314  -1.880  18.983  0.00  0.00    +0.179 C 
BRANCH  18  19
ATOM     19  C   UNL     1      38.277  -2.208  20.029  0.00  0.00    +0.089 C 
ATOM     20  N   UNL     1      39.037  -2.462  20.865  0.00  0.00    -0.304 NA
ENDBRANCH  18  19
ENDBRANCH   9  18
BRANCH  10  21
ATOM     21  C   UNL     1      37.801   0.474  17.529  0.00  0.00    +0.114 C 
BRANCH  21  22
ATOM     22  O   UNL     1      38.290   0.167  16.354  0.00  0.00    -0.246 OA
ATOM     23  H   UNL     1      39.209   0.408  16.321  0.00  0.00    +0.000 HD
ENDBRANCH  21  22
ENDBRANCH  10  21
TORSDOF 5
ENDMDL
MODEL 7
REMARK minimizedAffinity -6.48453283
REMARK minimizedRMSD -1
REMARK  Name = scaffold
REMARK  6 active torsions:
REMARK  status: ('A' for Active; 'I' for Inactive)
REMARK    1  A    between atoms: C_3  and  O_4
REMARK    2  A    between atoms: C_5  and  C_17
REMARK    3  A    between atoms: C_15  and  C_20
REMARK    4  A    between atoms: C_15  and  C_23
REMARK    5  A    between atoms: C_16  and  C_17
REMARK    6  A    between atoms: C_23  and  O_25
REMARK                            x       y       z     vdW  Elec       q    Type
REMARK                         _______ _______ _______ _____ _____    ______ ____
ROOT
ATOM      1  C   UNL     1      32.342   1.297  30.048  0.00  0.00    -0.024 A 
ATOM      2  C   UNL     1      33.653   1.694  30.327  0.00  0.00    +0.000 A 
ATOM      3  C   UNL     1      34.702   1.286  29.502  0.00  0.00    +0.074 A 
ATOM      4  C   UNL     1      34.426   0.438  28.424  0.00  0.00    +0.008 A 
ATOM      5  C   UNL     1      33.112   0.038  28.151  0.00  0.00    -0.049 A 
ATOM      6  C   UNL     1      32.891  -0.976  27.026  0.00  0.00    +0.058 C 
ATOM      7  C   UNL     1      31.452  -1.552  27.026  0.00  0.00    +0.018 C 
ATOM      8  C   UNL     1      30.434  -0.380  27.099  0.00  0.00    +0.000 C 
ATOM      9  C   UNL     1      28.945  -0.794  26.836  0.00  0.00    -0.004 C 
ATOM     10  C   UNL     1      27.971   0.435  26.947  0.00  0.00    +0.006 C 
ATOM     11  C   UNL     1      28.108   1.420  25.742  0.00  0.00    -0.039 C 
ATOM     12  C   UNL     1      28.218   1.194  28.286  0.00  0.00    -0.032 C 
ATOM     13  C   UNL     1      29.703   1.577  28.510  0.00  0.00    +0.006 C 
ATOM     14  C   UNL     1      30.577   0.293  28.497  0.00  0.00    +0.030 C 
ATOM     15  C   UNL     1      32.044   0.552  28.900  0.00  0.00    -0.048 A 
ENDROOT
BRANCH   3  16
ATOM     16  O   UNL     1      36.000   1.728  29.775  0.00  0.00    -0.339 OA
ATOM     17  H   UNL     1      36.651   1.444  29.143  0.00  0.00    +0.246 HD
ENDBRANCH   3  16
BRANCH   9  18
ATOM     18  C   UNL     1      28.568  -1.805  27.965  0.00  0.00    +0.179 C 
BRANCH  18  19
ATOM     19  C   UNL     1      28.267  -3.153  27.493  0.00  0.00    +0.089 C 
ATOM     20  N   UNL     1      28.020  -4.221  27.121  0.00  0.00    -0.304 NA
ENDBRANCH  18  19
ENDBRANCH   9  18
BRANCH  10  21
ATOM     21  C   UNL     1      26.544  -0.080  27.060  0.00  0.00    +0.114 C 
BRANCH  21  22
ATOM     22  O   UNL     1      25.733  -0.398  26.082  0.00  0.00    -0.246 OA
ATOM     23  H   UNL     1      24.903  -0.690  26.442  0.00  0.00    +0.000 HD
ENDBRANCH  21  22
ENDBRANCH  10  21
TORSDOF 5
ENDMDL
MODEL 8
REMARK minimizedAffinity -6.3999238
REMARK minimizedRMSD -1
REMARK  Name = scaffold
REMARK  6 active torsions:
REMARK  status: ('A' for Active; 'I' for Inactive)
REMARK    1  A    between atoms: C_3  and  O_4
REMARK    2  A    between atoms: C_5  and  C_17
REMARK    3  A    between atoms: C_15  and  C_20
REMARK    4  A    between atoms: C_15  and  C_23
REMARK    5  A    between atoms: C_16  and  C_17
REMARK    6  A    between atoms: C_23  and  O_25
REMARK                            x       y       z     vdW  Elec       q    Type
REMARK                         _______ _______ _______ _____ _____    ______ ____
ROOT
ATOM      1  C   UNL     1      33.857  -0.991  26.435  0.00  0.00    -0.024 A 
ATOM      2  C   UNL     1      35.203  -1.178  26.764  0.00  0.00    +0.000 A 
ATOM      3  C   UNL     1      35.627  -1.055  28.088  0.00  0.00    +0.074 A 
ATOM      4  C   UNL     1      34.695  -0.695  29.067  0.00  0.00    +0.008 A 
ATOM      5  C   UNL     1      33.349  -0.502  28.733  0.00  0.00    -0.049 A 
ATOM      6  C   UNL     1      32.403  -0.003  29.828  0.00  0.00    +0.058 C 
ATOM      7  C   UNL     1      31.033   0.448  29.262  0.00  0.00    +0.018 C 
ATOM      8  C   UNL     1      30.474  -0.663  28.332  0.00  0.00    +0.000 C 
ATOM      9  C   UNL     1      28.979  -0.465  27.904  0.00  0.00    -0.004 C 
ATOM     10  C   UNL     1      28.489  -1.613  26.948  0.00  0.00    +0.006 C 
ATOM     11  C   UNL     1      28.291  -2.971  27.694  0.00  0.00    -0.039 C 
ATOM     12  C   UNL     1      29.494  -1.793  25.770  0.00  0.00    -0.032 C 
ATOM     13  C   UNL     1      30.961  -1.979  26.237  0.00  0.00    +0.006 C 
ATOM     14  C   UNL     1      31.397  -0.749  27.079  0.00  0.00    +0.030 C 
ATOM     15  C   UNL     1      32.899  -0.753  27.429  0.00  0.00    -0.048 A 
ENDROOT
BRANCH   3  16
ATOM     16  O   UNL     1      36.969  -1.287  28.401  0.00  0.00    -0.339 OA
ATOM     17  H   UNL     1      37.171  -1.227  29.329  0.00  0.00    +0.246 HD
ENDBRANCH   3  16
BRANCH   9  18
ATOM     18  C   UNL     1      28.930   0.876  27.103  0.00  0.00    +0.179 C 
BRANCH  18  19
ATOM     19  C   UNL     1      28.421   2.014  27.862  0.00  0.00    +0.089 C 
ATOM     20  N   UNL     1      28.020   2.912  28.472  0.00  0.00    -0.304 NA
ENDBRANCH  18  19
ENDBRANCH   9  18
BRANCH  10  21
ATOM     21  C   UNL     1      27.195  -1.174  26.280  0.00  0.00    +0.114 C 
BRANCH  21  22
ATOM     22  O   UNL     1      26.053  -0.902  26.858  0.00  0.00    -0.246 OA
ATOM     23  H   UNL     1      25.415  -0.653  26.200  0.00  0.00    +0.000 HD
ENDBRANCH  21  22
ENDBRANCH  10  21
TORSDOF 5
ENDMDL
MODEL 9
REMARK minimizedAffinity -6.35646105
REMARK minimizedRMSD -1
REMARK  Name = scaffold
REMARK  6 active torsions:
REMARK  status: ('A' for Active; 'I' for Inactive)
REMARK    1  A    between atoms: C_3  and  O_4
REMARK    2  A    between atoms: C_5  and  C_17
REMARK    3  A    between atoms: C_15  and  C_20
REMARK    4  A    between atoms: C_15  and  C_23
REMARK    5  A    between atoms: C_16  and  C_17
REMARK    6  A    between atoms: C_23  and  O_25
REMARK                            x       y       z     vdW  Elec       q    Type
REMARK                         _______ _______ _______ _____ _____    ______ ____
ROOT
ATOM      1  C   UNL     1      29.663  -0.581  26.216  0.00  0.00    -0.024 A 
ATOM      2  C   UNL     1      28.472  -1.297  26.071  0.00  0.00    +0.000 A 
ATOM      3  C   UNL     1      28.338  -2.562  26.646  0.00  0.00    +0.074 A 
ATOM      4  C   UNL     1      29.428  -3.118  27.323  0.00  0.00    +0.008 A 
ATOM      5  C   UNL     1      30.623  -2.400  27.460  0.00  0.00    -0.049 A 
ATOM      6  C   UNL     1      31.812  -3.106  28.116  0.00  0.00    +0.058 C 
ATOM      7  C   UNL     1      33.136  -2.320  27.937  0.00  0.00    +0.018 C 
ATOM      8  C   UNL     1      32.908  -0.840  28.349  0.00  0.00    +0.000 C 
ATOM      9  C   UNL     1      34.220   0.009  28.478  0.00  0.00    -0.004 C 
ATOM     10  C   UNL     1      33.914   1.499  28.875  0.00  0.00    +0.006 C 
ATOM     11  C   UNL     1      33.453   1.641  30.361  0.00  0.00    -0.039 C 
ATOM     12  C   UNL     1      32.833   2.094  27.923  0.00  0.00    -0.032 C 
ATOM     13  C   UNL     1      31.556   1.221  27.820  0.00  0.00    +0.006 C 
ATOM     14  C   UNL     1      31.938  -0.196  27.313  0.00  0.00    +0.030 C 
ATOM     15  C   UNL     1      30.713  -1.080  26.998  0.00  0.00    -0.048 A 
ENDROOT
BRANCH   3  16
ATOM     16  O   UNL     1      27.123  -3.244  26.525  0.00  0.00    -0.339 OA
ATOM     17  H   UNL     1      27.096  -4.078  26.980  0.00  0.00    +0.246 HD
ENDBRANCH   3  16
BRANCH   9  18
ATOM     18  C   UNL     1      34.873   0.019  27.058  0.00  0.00    +0.179 C 
BRANCH  18  19
ATOM     19  C   UNL     1      36.244  -0.477  27.021  0.00  0.00    +0.089 C 
ATOM     20  N   UNL     1      37.332  -0.875  27.000  0.00  0.00    -0.304 NA
ENDBRANCH  18  19
ENDBRANCH   9  18
BRANCH  10  21
ATOM     21  C   UNL     1      35.155   2.340  28.616  0.00  0.00    +0.114 C 
BRANCH  21  22
ATOM     22  O   UNL     1      35.274   3.349  27.789  0.00  0.00    -0.246 OA
ATOM     23  H   UNL     1      36.161   3.688  27.830  0.00  0.00    +0.000 HD
ENDBRANCH  21  22
ENDBRANCH  10  21
TORSDOF 5
ENDMDL
MODEL 10
REMARK minimizedAffinity -6.21302271
REMARK minimizedRMSD -1
REMARK  Name = scaffold
REMARK  6 active torsions:
REMARK  status: ('A' for Active; 'I' for Inactive)
REMARK    1  A    between atoms: C_3  and  O_4
REMARK    2  A    between atoms: C_5  and  C_17
REMARK    3  A    between atoms: C_15  and  C_20
REMARK    4  A    between atoms: C_15  and  C_23
REMARK    5  A    between atoms: C_16  and  C_17
REMARK    6  A    between atoms: C_23  and  O_25
REMARK                            x       y       z     vdW  Elec       q    Type
REMARK                         _______ _______ _______ _____ _____    ______ ____
ROOT
ATOM      1  C   UNL     1      32.687  -3.880  24.716  0.00  0.00    -0.024 A 
ATOM      2  C   UNL     1      32.589  -4.577  23.509  0.00  0.00    +0.000 A 
ATOM      3  C   UNL     1      32.304  -3.896  22.325  0.00  0.00    +0.074 A 
ATOM      4  C   UNL     1      32.072  -2.517  22.375  0.00  0.00    +0.008 A 
ATOM      5  C   UNL     1      32.164  -1.823  23.588  0.00  0.00    -0.049 A 
ATOM      6  C   UNL     1      31.791  -0.339  23.594  0.00  0.00    +0.058 C 
ATOM      7  C   UNL     1      31.650   0.227  25.031  0.00  0.00    +0.018 C 
ATOM      8  C   UNL     1      32.904  -0.166  25.858  0.00  0.00    +0.000 C 
ATOM      9  C   UNL     1      33.026   0.562  27.241  0.00  0.00    -0.004 C 
ATOM     10  C   UNL     1      34.304   0.101  28.032  0.00  0.00    +0.006 C 
ATOM     11  C   UNL     1      35.626   0.656  27.412  0.00  0.00    -0.039 C 
ATOM     12  C   UNL     1      34.359  -1.455  28.099  0.00  0.00    -0.032 C 
ATOM     13  C   UNL     1      34.228  -2.134  26.712  0.00  0.00    +0.006 C 
ATOM     14  C   UNL     1      32.887  -1.712  26.052  0.00  0.00    +0.030 C 
ATOM     15  C   UNL     1      32.578  -2.484  24.752  0.00  0.00    -0.048 A 
ENDROOT
BRANCH   3  16
ATOM     16  O   UNL     1      32.252  -4.605  21.121  0.00  0.00    -0.339 OA
ATOM     17  H   UNL     1      32.097  -4.065  20.354  0.00  0.00    +0.246 HD
ENDBRANCH   3  16
BRANCH   9  18
ATOM     18  C   UNL     1      31.772   0.135  28.070  0.00  0.00    +0.179 C 
BRANCH  18  19
ATOM     19  C   UNL     1      30.834   1.217  28.347  0.00  0.00    +0.089 C 
ATOM     20  N   UNL     1      30.086   2.076  28.558  0.00  0.00    -0.304 NA
ENDBRANCH  18  19
ENDBRANCH   9  18
BRANCH  10  21
ATOM     21  C   UNL     1      34.167   0.540  29.483  0.00  0.00    +0.114 C 
BRANCH  21  22
ATOM     22  O   UNL     1      34.195   1.762  29.951  0.00  0.00    -0.246 OA
ATOM     23  H   UNL     1      34.085   1.742  30.894  0.00  0.00    +0.000 HD
ENDBRANCH  21  22
ENDBRANCH  10  21
TORSDOF 5
ENDMDL
MODEL 11
REMARK minimizedAffinity -6.00285101
REMARK minimizedRMSD -1
REMARK  Name = scaffold
REMARK  6 active torsions:
REMARK  status: ('A' for Active; 'I' for Inactive)
REMARK    1  A    between atoms: C_3  and  O_4
REMARK    2  A    between atoms: C_5  and  C_17
REMARK    3  A    between atoms: C_15  and  C_20
REMARK    4  A    between atoms: C_15  and  C_23
REMARK    5  A    between atoms: C_16  and  C_17
REMARK    6  A    between atoms: C_23  and  O_25
REMARK                            x       y       z     vdW  Elec       q    Type
REMARK                         _______ _______ _______ _____ _____    ______ ____
ROOT
ATOM      1  C   UNL     1      28.567   0.907  27.776  0.00  0.00    -0.024 A 
ATOM      2  C   UNL     1      27.207   0.761  27.487  0.00  0.00    +0.000 A 
ATOM      3  C   UNL     1      26.782  -0.205  26.575  0.00  0.00    +0.074 A 
ATOM      4  C   UNL     1      27.739  -0.988  25.921  0.00  0.00    +0.008 A 
ATOM      5  C   UNL     1      29.101  -0.834  26.207  0.00  0.00    -0.049 A 
ATOM      6  C   UNL     1      30.103  -1.642  25.379  0.00  0.00    +0.058 C 
ATOM      7  C   UNL     1      31.563  -1.162  25.589  0.00  0.00    +0.018 C 
ATOM      8  C   UNL     1      31.854  -1.068  27.112  0.00  0.00    +0.000 C 
ATOM      9  C   UNL     1      33.365  -0.857  27.474  0.00  0.00    -0.004 C 
ATOM     10  C   UNL     1      33.582  -0.749  29.027  0.00  0.00    +0.006 C 
ATOM     11  C   UNL     1      33.404  -2.119  29.755  0.00  0.00    -0.039 C 
ATOM     12  C   UNL     1      32.606   0.306  29.631  0.00  0.00    -0.032 C 
ATOM     13  C   UNL     1      31.125   0.065  29.243  0.00  0.00    +0.006 C 
ATOM     14  C   UNL     1      30.985   0.086  27.696  0.00  0.00    +0.030 C 
ATOM     15  C   UNL     1      29.518   0.044  27.217  0.00  0.00    -0.048 A 
ENDROOT
BRANCH   3  16
ATOM     16  O   UNL     1      25.414  -0.364  26.332  0.00  0.00    -0.339 OA
ATOM     17  H   UNL     1      25.202  -1.071  25.733  0.00  0.00    +0.246 HD
ENDBRANCH   3  16
BRANCH   9  18
ATOM     18  C   UNL     1      33.779   0.509  26.837  0.00  0.00    +0.179 C 
BRANCH  18  19
ATOM     19  C   UNL     1      35.219   0.732  26.773  0.00  0.00    +0.089 C 
ATOM     20  N   UNL     1      36.364   0.906  26.731  0.00  0.00    -0.304 NA
ENDBRANCH  18  19
ENDBRANCH   9  18
BRANCH  10  21
ATOM     21  C   UNL     1      34.968  -0.178  29.289  0.00  0.00    +0.114 C 
BRANCH  21  22
ATOM     22  O   UNL     1      36.085  -0.842  29.448  0.00  0.00    -0.246 OA
ATOM     23  H   UNL     1      36.798  -0.231  29.597  0.00  0.00    +0.000 HD
ENDBRANCH  21  22
ENDBRANCH  10  21
TORSDOF 5
ENDMDL
MODEL 12
REMARK minimizedAffinity -5.76086187
REMARK minimizedRMSD -1
REMARK  Name = scaffold
REMARK  6 active torsions:
REMARK  status: ('A' for Active; 'I' for Inactive)
REMARK    1  A    between atoms: C_3  and  O_4
REMARK    2  A    between atoms: C_5  and  C_17
REMARK    3  A    between atoms: C_15  and  C_20
REMARK    4  A    between atoms: C_15  and  C_23
REMARK    5  A    between atoms: C_16  and  C_17
REMARK    6  A    between atoms: C_23  and  O_25
REMARK                            x       y       z     vdW  Elec       q    Type
REMARK                         _______ _______ _______ _____ _____    ______ ____
ROOT
ATOM      1  C   UNL     1      33.449  -2.815  18.038  0.00  0.00    -0.024 A 
ATOM      2  C   UNL     1      32.783  -3.689  18.901  0.00  0.00    +0.000 A 
ATOM      3  C   UNL     1      33.214  -3.837  20.220  0.00  0.00    +0.074 A 
ATOM      4  C   UNL     1      34.348  -3.137  20.646  0.00  0.00    +0.008 A 
ATOM      5  C   UNL     1      35.017  -2.267  19.776  0.00  0.00    -0.049 A 
ATOM      6  C   UNL     1      36.311  -1.617  20.268  0.00  0.00    +0.058 C 
ATOM      7  C   UNL     1      37.096  -0.927  19.122  0.00  0.00    +0.018 C 
ATOM      8  C   UNL     1      36.131  -0.009  18.324  0.00  0.00    +0.000 C 
ATOM      9  C   UNL     1      36.838   0.955  17.310  0.00  0.00    -0.004 C 
ATOM     10  C   UNL     1      35.801   1.837  16.524  0.00  0.00    +0.006 C 
ATOM     11  C   UNL     1      35.157   2.945  17.417  0.00  0.00    -0.039 C 
ATOM     12  C   UNL     1      34.689   0.934  15.910  0.00  0.00    -0.032 C 
ATOM     13  C   UNL     1      34.021  -0.007  16.944  0.00  0.00    +0.006 C 
ATOM     14  C   UNL     1      35.101  -0.918  17.589  0.00  0.00    +0.030 C 
ATOM     15  C   UNL     1      34.508  -2.019  18.493  0.00  0.00    -0.048 A 
ENDROOT
BRANCH   3  16
ATOM     16  O   UNL     1      32.509  -4.685  21.080  0.00  0.00    -0.339 OA
ATOM     17  H   UNL     1      32.836  -4.698  21.973  0.00  0.00    +0.246 HD
ENDBRANCH   3  16
BRANCH   9  18
ATOM     18  C   UNL     1      37.567   0.039  16.275  0.00  0.00    +0.179 C 
BRANCH  18  19
ATOM     19  C   UNL     1      38.935   0.444  15.969  0.00  0.00    +0.089 C 
ATOM     20  N   UNL     1      40.018   0.772  15.721  0.00  0.00    -0.304 NA
ENDBRANCH  18  19
ENDBRANCH   9  18
BRANCH  10  21
ATOM     21  C   UNL     1      36.497   2.455  15.320  0.00  0.00    +0.114 C 
BRANCH  21  22
ATOM     22  O   UNL     1      36.763   3.721  15.118  0.00  0.00    -0.246 OA
ATOM     23  H   UNL     1      37.203   3.822  14.283  0.00  0.00    +0.000 HD
ENDBRANCH  21  22
ENDBRANCH  10  21
TORSDOF 5
ENDMDL
MODEL 13
REMARK minimizedAffinity -5.38481379
REMARK minimizedRMSD -1
REMARK  Name = scaffold
REMARK  6 active torsions:
REMARK  status: ('A' for Active; 'I' for Inactive)
REMARK    1  A    between atoms: C_3  and  O_4
REMARK    2  A    between atoms: C_5  and  C_17
REMARK    3  A    between atoms: C_15  and  C_20
REMARK    4  A    between atoms: C_15  and  C_23
REMARK    5  A    between atoms: C_16  and  C_17
REMARK    6  A    between atoms: C_23  and  O_25
REMARK                            x       y       z     vdW  Elec       q    Type
REMARK                         _______ _______ _______ _____ _____    ______ ____
ROOT
ATOM      1  C   UNL     1      31.601  -2.064  25.167  0.00  0.00    -0.024 A 
ATOM      2  C   UNL     1      32.839  -2.701  25.053  0.00  0.00    +0.000 A 
ATOM      3  C   UNL     1      33.665  -2.836  26.170  0.00  0.00    +0.074 A 
ATOM      4  C   UNL     1      33.255  -2.284  27.387  0.00  0.00    +0.008 A 
ATOM      5  C   UNL     1      32.016  -1.640  27.496  0.00  0.00    -0.049 A 
ATOM      6  C   UNL     1      31.675  -0.962  28.825  0.00  0.00    +0.058 C 
ATOM      7  C   UNL     1      30.429  -0.046  28.716  0.00  0.00    +0.018 C 
ATOM      8  C   UNL     1      29.276  -0.834  28.036  0.00  0.00    +0.000 C 
ATOM      9  C   UNL     1      27.877  -0.129  28.103  0.00  0.00    -0.004 C 
ATOM     10  C   UNL     1      26.765  -0.971  27.378  0.00  0.00    +0.006 C 
ATOM     11  C   UNL     1      26.367  -2.254  28.176  0.00  0.00    -0.039 C 
ATOM     12  C   UNL     1      27.239  -1.361  25.945  0.00  0.00    -0.032 C 
ATOM     13  C   UNL     1      28.628  -2.048  25.923  0.00  0.00    +0.006 C 
ATOM     14  C   UNL     1      29.685  -1.101  26.557  0.00  0.00    +0.030 C 
ATOM     15  C   UNL     1      31.131  -1.619  26.409  0.00  0.00    -0.048 A 
ENDROOT
BRANCH   3  16
ATOM     16  O   UNL     1      34.882  -3.514  26.044  0.00  0.00    -0.339 OA
ATOM     17  H   UNL     1      35.366  -3.604  26.857  0.00  0.00    +0.246 HD
ENDBRANCH   3  16
BRANCH   9  18
ATOM     18  C   UNL     1      28.033   1.221  27.332  0.00  0.00    +0.179 C 
BRANCH  18  19
ATOM     19  C   UNL     1      28.642   2.294  28.111  0.00  0.00    +0.089 C 
ATOM     20  N   UNL     1      29.126   3.150  28.721  0.00  0.00    -0.304 NA
ENDBRANCH  18  19
ENDBRANCH   9  18
BRANCH  10  21
ATOM     21  C   UNL     1      25.551  -0.083  27.148  0.00  0.00    +0.114 C 
BRANCH  21  22
ATOM     22  O   UNL     1      24.520  -0.328  26.379  0.00  0.00    -0.246 OA
ATOM     23  H   UNL     1      23.911   0.400  26.426  0.00  0.00    +0.000 HD
ENDBRANCH  21  22
ENDBRANCH  10  21
TORSDOF 5
ENDMDL
MODEL 14
REMARK minimizedAffinity -5.28971577
REMARK minimizedRMSD -1
REMARK  Name = scaffold
REMARK  6 active torsions:
REMARK  status: ('A' for Active; 'I' for Inactive)
REMARK    1  A    between atoms: C_3  and  O_4
REMARK    2  A    between atoms: C_5  and  C_17
REMARK    3  A    between atoms: C_15  and  C_20
REMARK    4  A    between atoms: C_15  and  C_23
REMARK    5  A    between atoms: C_16  and  C_17
REMARK    6  A    between atoms: C_23  and  O_25
REMARK                            x       y       z     vdW  Elec       q    Type
REMARK                         _______ _______ _______ _____ _____    ______ ____
ROOT
ATOM      1  C   UNL     1      32.809  -3.882  26.001  0.00  0.00    -0.024 A 
ATOM      2  C   UNL     1      32.470  -3.657  27.338  0.00  0.00    +0.000 A 
ATOM      3  C   UNL     1      31.892  -2.446  27.722  0.00  0.00    +0.074 A 
ATOM      4  C   UNL     1      31.705  -1.449  26.760  0.00  0.00    +0.008 A 
ATOM      5  C   UNL     1      32.053  -1.676  25.422  0.00  0.00    -0.049 A 
ATOM      6  C   UNL     1      31.926  -0.508  24.441  0.00  0.00    +0.058 C 
ATOM      7  C   UNL     1      32.615  -0.801  23.084  0.00  0.00    +0.018 C 
ATOM      8  C   UNL     1      32.143  -2.186  22.562  0.00  0.00    +0.000 C 
ATOM      9  C   UNL     1      32.545  -2.495  21.078  0.00  0.00    -0.004 C 
ATOM     10  C   UNL     1      32.055  -3.919  20.626  0.00  0.00    +0.006 C 
ATOM     11  C   UNL     1      30.508  -3.983  20.418  0.00  0.00    -0.039 C 
ATOM     12  C   UNL     1      32.497  -4.992  21.666  0.00  0.00    -0.032 C 
ATOM     13  C   UNL     1      32.086  -4.644  23.120  0.00  0.00    +0.006 C 
ATOM     14  C   UNL     1      32.706  -3.278  23.521  0.00  0.00    +0.030 C 
ATOM     15  C   UNL     1      32.511  -2.936  25.013  0.00  0.00    -0.048 A 
ENDROOT
BRANCH   3  16
ATOM     16  O   UNL     1      31.521  -2.257  29.057  0.00  0.00    -0.339 OA
ATOM     17  H   UNL     1      31.094  -1.425  29.231  0.00  0.00    +0.246 HD
ENDBRANCH   3  16
BRANCH   9  18
ATOM     18  C   UNL     1      34.107  -2.494  21.041  0.00  0.00    +0.179 C 
BRANCH  18  19
ATOM     19  C   UNL     1      34.684  -1.760  19.921  0.00  0.00    +0.089 C 
ATOM     20  N   UNL     1      35.147  -1.185  19.029  0.00  0.00    -0.304 NA
ENDBRANCH  18  19
ENDBRANCH   9  18
BRANCH  10  21
ATOM     21  C   UNL     1      32.785  -4.304  19.348  0.00  0.00    +0.114 C 
BRANCH  21  22
ATOM     22  O   UNL     1      32.533  -3.891  18.131  0.00  0.00    -0.246 OA
ATOM     23  H   UNL     1      33.145  -4.294  17.527  0.00  0.00    +0.000 HD
ENDBRANCH  21  22
ENDBRANCH  10  21
TORSDOF 5
ENDMDL
MODEL 15
REMARK minimizedAffinity -4.99595499
REMARK minimizedRMSD -1
REMARK  Name = scaffold
REMARK  6 active torsions:
REMARK  status: ('A' for Active; 'I' for Inactive)
REMARK    1  A    between atoms: C_3  and  O_4
REMARK    2  A    between atoms: C_5  and  C_17
REMARK    3  A    between atoms: C_15  and  C_20
REMARK    4  A    between atoms: C_15  and  C_23
REMARK    5  A    between atoms: C_16  and  C_17
REMARK    6  A    between atoms: C_23  and  O_25
REMARK                            x       y       z     vdW  Elec       q    Type
REMARK                         _______ _______ _______ _____ _____    ______ ____
ROOT
ATOM      1  C   UNL     1      32.332  -4.618  22.880  0.00  0.00    -0.024 A 
ATOM      2  C   UNL     1      32.805  -5.033  21.632  0.00  0.00    +0.000 A 
ATOM      3  C   UNL     1      33.285  -4.097  20.715  0.00  0.00    +0.074 A 
ATOM      4  C   UNL     1      33.241  -2.739  21.047  0.00  0.00    +0.008 A 
ATOM      5  C   UNL     1      32.760  -2.326  22.296  0.00  0.00    -0.049 A 
ATOM      6  C   UNL     1      32.635  -0.823  22.555  0.00  0.00    +0.058 C 
ATOM      7  C   UNL     1      31.823  -0.512  23.838  0.00  0.00    +0.018 C 
ATOM      8  C   UNL     1      32.380  -1.363  25.012  0.00  0.00    +0.000 C 
ATOM      9  C   UNL     1      31.837  -0.957  26.426  0.00  0.00    -0.004 C 
ATOM     10  C   UNL     1      32.425  -1.872  27.561  0.00  0.00    +0.006 C 
ATOM     11  C   UNL     1      33.933  -1.579  27.848  0.00  0.00    -0.039 C 
ATOM     12  C   UNL     1      32.236  -3.373  27.188  0.00  0.00    -0.032 C 
ATOM     13  C   UNL     1      32.779  -3.730  25.781  0.00  0.00    +0.006 C 
ATOM     14  C   UNL     1      32.064  -2.859  24.713  0.00  0.00    +0.030 C 
ATOM     15  C   UNL     1      32.400  -3.273  23.265  0.00  0.00    -0.048 A 
ENDROOT
BRANCH   3  16
ATOM     16  O   UNL     1      33.792  -4.537  19.489  0.00  0.00    -0.339 OA
ATOM     17  H   UNL     1      34.141  -3.844  18.938  0.00  0.00    +0.246 HD
ENDBRANCH   3  16
BRANCH   9  18
ATOM     18  C   UNL     1      30.292  -1.185  26.381  0.00  0.00    +0.179 C 
BRANCH  18  19
ATOM     19  C   UNL     1      29.500   0.040  26.405  0.00  0.00    +0.089 C 
ATOM     20  N   UNL     1      28.879   1.018  26.423  0.00  0.00    -0.304 NA
ENDBRANCH  18  19
ENDBRANCH   9  18
BRANCH  10  21
ATOM     21  C   UNL     1      31.593  -1.685  28.821  0.00  0.00    +0.114 C 
BRANCH  21  22
ATOM     22  O   UNL     1      30.490  -2.311  29.147  0.00  0.00    -0.246 OA
ATOM     23  H   UNL     1      30.184  -1.996  29.989  0.00  0.00    +0.000 HD
ENDBRANCH  21  22
ENDBRANCH  10  21
TORSDOF 5
ENDMDL
MODEL 16
REMARK minimizedAffinity -4.84392691
REMARK minimizedRMSD -1
REMARK  Name = scaffold
REMARK  6 active torsions:
REMARK  status: ('A' for Active; 'I' for Inactive)
REMARK    1  A    between atoms: C_3  and  O_4
REMARK    2  A    between atoms: C_5  and  C_17
REMARK    3  A    between atoms: C_15  and  C_20
REMARK    4  A    between atoms: C_15  and  C_23
REMARK    5  A    between atoms: C_16  and  C_17
REMARK    6  A    between atoms: C_23  and  O_25
REMARK                            x       y       z     vdW  Elec       q    Type
REMARK                         _______ _______ _______ _____ _____    ______ ____
ROOT
ATOM      1  C   UNL     1      34.466  -0.801  16.913  0.00  0.00    -0.024 A 
ATOM      2  C   UNL     1      35.338  -0.267  15.961  0.00  0.00    +0.000 A 
ATOM      3  C   UNL     1      36.704  -0.174  16.233  0.00  0.00    +0.074 A 
ATOM      4  C   UNL     1      37.174  -0.576  17.487  0.00  0.00    +0.008 A 
ATOM      5  C   UNL     1      36.296  -1.105  18.442  0.00  0.00    -0.049 A 
ATOM      6  C   UNL     1      36.854  -1.424  19.831  0.00  0.00    +0.058 C 
ATOM      7  C   UNL     1      35.734  -1.713  20.863  0.00  0.00    +0.018 C 
ATOM      8  C   UNL     1      34.749  -2.756  20.267  0.00  0.00    +0.000 C 
ATOM      9  C   UNL     1      33.723  -3.345  21.296  0.00  0.00    -0.004 C 
ATOM     10  C   UNL     1      32.746  -4.375  20.620  0.00  0.00    +0.006 C 
ATOM     11  C   UNL     1      33.448  -5.723  20.263  0.00  0.00    -0.039 C 
ATOM     12  C   UNL     1      32.112  -3.749  19.340  0.00  0.00    -0.032 C 
ATOM     13  C   UNL     1      33.160  -3.173  18.354  0.00  0.00    +0.006 C 
ATOM     14  C   UNL     1      34.005  -2.086  19.073  0.00  0.00    +0.030 C 
ATOM     15  C   UNL     1      34.948  -1.320  18.122  0.00  0.00    -0.048 A 
ENDROOT
BRANCH   3  16
ATOM     16  O   UNL     1      37.566   0.325  15.251  0.00  0.00    -0.339 OA
ATOM     17  H   UNL     1      38.485   0.315  15.496  0.00  0.00    +0.246 HD
ENDBRANCH   3  16
BRANCH   9  18
ATOM     18  C   UNL     1      32.869  -2.137  21.799  0.00  0.00    +0.179 C 
BRANCH  18  19
ATOM     19  C   UNL     1      32.570  -2.163  23.227  0.00  0.00    +0.089 C 
ATOM     20  N   UNL     1      32.333  -2.175  24.361  0.00  0.00    -0.304 NA
ENDBRANCH  18  19
ENDBRANCH   9  18
BRANCH  10  21
ATOM     21  C   UNL     1      31.566  -4.614  21.550  0.00  0.00    +0.114 C 
BRANCH  21  22
ATOM     22  O   UNL     1      31.033  -5.763  21.881  0.00  0.00    -0.246 OA
ATOM     23  H   UNL     1      30.309  -5.616  22.477  0.00  0.00    +0.000 HD
ENDBRANCH  21  22
ENDBRANCH  10  21
TORSDOF 5
ENDMDL
MODEL 17
REMARK minimizedAffinity -4.25616741
REMARK minimizedRMSD -1
REMARK  Name = scaffold
REMARK  6 active torsions:
REMARK  status: ('A' for Active; 'I' for Inactive)
REMARK    1  A    between atoms: C_3  and  O_4
REMARK    2  A    between atoms: C_5  and  C_17
REMARK    3  A    between atoms: C_15  and  C_20
REMARK    4  A    between atoms: C_15  and  C_23
REMARK    5  A    between atoms: C_16  and  C_17
REMARK    6  A    between atoms: C_23  and  O_25
REMARK                            x       y       z     vdW  Elec       q    Type
REMARK                         _______ _______ _______ _____ _____    ______ ____
ROOT
ATOM      1  C   UNL     1      35.153   1.133  16.777  0.00  0.00    -0.024 A 
ATOM      2  C   UNL     1      36.154   1.823  16.088  0.00  0.00    +0.000 A 
ATOM      3  C   UNL     1      37.467   1.352  16.099  0.00  0.00    +0.074 A 
ATOM      4  C   UNL     1      37.772   0.211  16.848  0.00  0.00    +0.008 A 
ATOM      5  C   UNL     1      36.768  -0.474  17.543  0.00  0.00    -0.049 A 
ATOM      6  C   UNL     1      37.184  -1.649  18.431  0.00  0.00    +0.058 C 
ATOM      7  C   UNL     1      36.037  -2.120  19.361  0.00  0.00    +0.018 C 
ATOM      8  C   UNL     1      34.749  -2.324  18.517  0.00  0.00    +0.000 C 
ATOM      9  C   UNL     1      33.585  -3.056  19.272  0.00  0.00    -0.004 C 
ATOM     10  C   UNL     1      32.309  -3.208  18.367  0.00  0.00    +0.006 C 
ATOM     11  C   UNL     1      32.497  -4.272  17.238  0.00  0.00    -0.039 C 
ATOM     12  C   UNL     1      31.928  -1.831  17.743  0.00  0.00    -0.032 C 
ATOM     13  C   UNL     1      33.108  -1.140  17.013  0.00  0.00    +0.006 C 
ATOM     14  C   UNL     1      34.281  -0.928  18.010  0.00  0.00    +0.030 C 
ATOM     15  C   UNL     1      35.428  -0.077  17.426  0.00  0.00    -0.048 A 
ENDROOT
BRANCH   3  16
ATOM     16  O   UNL     1      38.445   2.034  15.368  0.00  0.00    -0.339 OA
ATOM     17  H   UNL     1      39.304   1.627  15.389  0.00  0.00    +0.246 HD
ENDBRANCH   3  16
BRANCH   9  18
ATOM     18  C   UNL     1      33.207  -2.139  20.480  0.00  0.00    +0.179 C 
BRANCH  18  19
ATOM     19  C   UNL     1      32.972  -2.855  21.730  0.00  0.00    +0.089 C 
ATOM     20  N   UNL     1      32.795  -3.422  22.724  0.00  0.00    -0.304 NA
ENDBRANCH  18  19
ENDBRANCH   9  18
BRANCH  10  21
ATOM     21  C   UNL     1      31.123  -3.567  19.250  0.00  0.00    +0.114 C 
BRANCH  21  22
ATOM     22  O   UNL     1      30.851  -4.731  19.783  0.00  0.00    -0.246 OA
ATOM     23  H   UNL     1      30.048  -4.668  20.287  0.00  0.00    +0.000 HD
ENDBRANCH  21  22
ENDBRANCH  10  21
TORSDOF 5
ENDMDL
MODEL 18
REMARK minimizedAffinity -2.1340239
REMARK minimizedRMSD -1
REMARK  Name = scaffold
REMARK  6 active torsions:
REMARK  status: ('A' for Active; 'I' for Inactive)
REMARK    1  A    between atoms: C_3  and  O_4
REMARK    2  A    between atoms: C_5  and  C_17
REMARK    3  A    between atoms: C_15  and  C_20
REMARK    4  A    between atoms: C_15  and  C_23
REMARK    5  A    between atoms: C_16  and  C_17
REMARK    6  A    between atoms: C_23  and  O_25
REMARK                            x       y       z     vdW  Elec       q    Type
REMARK                         _______ _______ _______ _____ _____    ______ ____
ROOT
ATOM      1  C   UNL     1      32.320  -2.855  20.881  0.00  0.00    -0.024 A 
ATOM      2  C   UNL     1      31.117  -3.560  20.783  0.00  0.00    +0.000 A 
ATOM      3  C   UNL     1      30.600  -3.896  19.531  0.00  0.00    +0.074 A 
ATOM      4  C   UNL     1      31.277  -3.474  18.382  0.00  0.00    +0.008 A 
ATOM      5  C   UNL     1      32.478  -2.761  18.485  0.00  0.00    -0.049 A 
ATOM      6  C   UNL     1      33.111  -2.235  17.195  0.00  0.00    +0.058 C 
ATOM      7  C   UNL     1      34.255  -1.225  17.469  0.00  0.00    +0.018 C 
ATOM      8  C   UNL     1      35.233  -1.835  18.511  0.00  0.00    +0.000 C 
ATOM      9  C   UNL     1      36.577  -1.045  18.683  0.00  0.00    -0.004 C 
ATOM     10  C   UNL     1      37.506  -1.705  19.766  0.00  0.00    +0.006 C 
ATOM     11  C   UNL     1      38.140  -3.046  19.275  0.00  0.00    -0.039 C 
ATOM     12  C   UNL     1      36.707  -1.943  21.082  0.00  0.00    -0.032 C 
ATOM     13  C   UNL     1      35.384  -2.720  20.866  0.00  0.00    +0.006 C 
ATOM     14  C   UNL     1      34.482  -1.941  19.871  0.00  0.00    +0.030 C 
ATOM     15  C   UNL     1      33.065  -2.538  19.738  0.00  0.00    -0.048 A 
ENDROOT
BRANCH   3  16
ATOM     16  O   UNL     1      29.417  -4.638  19.455  0.00  0.00    -0.339 OA
ATOM     17  H   UNL     1      29.153  -4.865  18.571  0.00  0.00    +0.246 HD
ENDBRANCH   3  16
BRANCH   9  18
ATOM     18  C   UNL     1      36.183   0.378  19.196  0.00  0.00    +0.179 C 
BRANCH  18  19
ATOM     19  C   UNL     1      36.015   1.374  18.143  0.00  0.00    +0.089 C 
ATOM     20  N   UNL     1      35.875   2.159  17.303  0.00  0.00    -0.304 NA
ENDBRANCH  18  19
ENDBRANCH   9  18
BRANCH  10  21
ATOM     21  C   UNL     1      38.590  -0.710  20.153  0.00  0.00    +0.114 C 
BRANCH  21  22
ATOM     22  O   UNL     1      39.868  -0.946  20.309  0.00  0.00    -0.246 OA
ATOM     23  H   UNL     1      40.311  -0.141  20.552  0.00  0.00    +0.000 HD
ENDBRANCH  21  22
ENDBRANCH  10  21
TORSDOF 5
ENDMDL
MODEL 19
REMARK minimizedAffinity -1.37872541
REMARK minimizedRMSD -1
REMARK  Name = scaffold
REMARK  6 active torsions:
REMARK  status: ('A' for Active; 'I' for Inactive)
REMARK    1  A    between atoms: C_3  and  O_4
REMARK    2  A    between atoms: C_5  and  C_17
REMARK    3  A    between atoms: C_15  and  C_20
REMARK    4  A    between atoms: C_15  and  C_23
REMARK    5  A    between atoms: C_16  and  C_17
REMARK    6  A    between atoms: C_23  and  O_25
REMARK                            x       y       z     vdW  Elec       q    Type
REMARK                         _______ _______ _______ _____ _____    ______ ____
ROOT
ATOM      1  C   UNL     1      32.185  -2.772  28.162  0.00  0.00    -0.024 A 
ATOM      2  C   UNL     1      33.217  -3.638  27.789  0.00  0.00    +0.000 A 
ATOM      3  C   UNL     1      33.406  -3.968  26.446  0.00  0.00    +0.074 A 
ATOM      4  C   UNL     1      32.520  -3.458  25.492  0.00  0.00    +0.008 A 
ATOM      5  C   UNL     1      31.483  -2.596  25.870  0.00  0.00    -0.049 A 
ATOM      6  C   UNL     1      30.483  -2.163  24.796  0.00  0.00    +0.058 C 
ATOM      7  C   UNL     1      29.236  -1.466  25.398  0.00  0.00    +0.018 C 
ATOM      8  C   UNL     1      29.699  -0.361  26.387  0.00  0.00    +0.000 C 
ATOM      9  C   UNL     1      28.559   0.604  26.865  0.00  0.00    -0.004 C 
ATOM     10  C   UNL     1      29.093   1.681  27.879  0.00  0.00    +0.006 C 
ATOM     11  C   UNL     1      29.980   2.766  27.188  0.00  0.00    -0.039 C 
ATOM     12  C   UNL     1      29.894   0.987  29.022  0.00  0.00    -0.032 C 
ATOM     13  C   UNL     1      31.005   0.038  28.506  0.00  0.00    +0.006 C 
ATOM     14  C   UNL     1      30.373  -1.059  27.606  0.00  0.00    +0.030 C 
ATOM     15  C   UNL     1      31.372  -2.162  27.198  0.00  0.00    -0.048 A 
ENDROOT
BRANCH   3  16
ATOM     16  O   UNL     1      34.470  -4.802  26.090  0.00  0.00    -0.339 OA
ATOM     17  H   UNL     1      34.559  -4.944  25.154  0.00  0.00    +0.246 HD
ENDBRANCH   3  16
BRANCH   9  18
ATOM     18  C   UNL     1      27.521  -0.289  27.620  0.00  0.00    +0.179 C 
BRANCH  18  19
ATOM     19  C   UNL     1      26.188  -0.295  27.029  0.00  0.00    +0.089 C 
ATOM     20  N   UNL     1      25.133  -0.300  26.551  0.00  0.00    -0.304 NA
ENDBRANCH  18  19
ENDBRANCH   9  18
BRANCH  10  21
ATOM     21  C   UNL     1      27.906   2.324  28.580  0.00  0.00    +0.114 C 
BRANCH  21  22
ATOM     22  O   UNL     1      27.789   3.569  28.967  0.00  0.00    -0.246 OA
ATOM     23  H   UNL     1      26.942   3.695  29.379  0.00  0.00    +0.000 HD
ENDBRANCH  21  22
ENDBRANCH  10  21
TORSDOF 5
ENDMDL
