MODEL 1
REMARK minimizedAffinity -6.12799883
REMARK minimizedRMSD -1
REMARK  Name = 303
REMARK  5 active torsions:
REMARK  status: ('A' for Active; 'I' for Inactive)
REMARK    1  A    between atoms: C_3  and  O_4
REMARK    2  A    between atoms: C_5  and  C_17
REMARK    3  A    between atoms: C_15  and  C_20
REMARK    4  A    between atoms: C_15  and  C_23
REMARK    5  A    between atoms: C_16  and  C_17
REMARK                            x       y       z     vdW  Elec       q    Type
REMARK                         _______ _______ _______ _____ _____    ______ ____
ROOT
ATOM      1  C   UNL     1      29.450   0.665  26.124  0.00  0.00    -0.024 A 
ATOM      2  C   UNL     1      28.115   1.059  26.250  0.00  0.00    +0.000 A 
ATOM      3  C   UNL     1      27.232   0.312  27.031  0.00  0.00    +0.074 A 
ATOM      4  C   UNL     1      27.699  -0.846  27.661  0.00  0.00    +0.008 A 
ATOM      5  C   UNL     1      29.036  -1.242  27.532  0.00  0.00    -0.049 A 
ATOM      6  C   UNL     1      29.446  -2.571  28.178  0.00  0.00    +0.058 C 
ATOM      7  C   UNL     1      30.841  -3.038  27.697  0.00  0.00    +0.018 C 
ATOM      8  C   UNL     1      31.837  -1.859  27.831  0.00  0.00    +0.000 C 
ATOM      9  C   UNL     1      33.346  -2.275  27.768  0.00  0.00    -0.004 C 
ATOM     10  C   UNL     1      34.265  -1.025  27.995  0.00  0.00    +0.006 C 
ATOM     11  C   UNL     1      34.223  -0.491  29.463  0.00  0.00    -0.039 C 
ATOM     12  C   UNL     1      33.867   0.102  26.994  0.00  0.00    -0.032 C 
ATOM     13  C   UNL     1      32.361   0.482  27.044  0.00  0.00    +0.006 C 
ATOM     14  C   UNL     1      31.460  -0.761  26.796  0.00  0.00    +0.030 C 
ATOM     15  C   UNL     1      29.948  -0.440  26.827  0.00  0.00    -0.048 A 
ENDROOT
BRANCH  10  16
ATOM     16  C   UNL     1      35.720  -1.388  27.762  0.00  0.00    +0.114 A 
ATOM     17  N   UNL     1      36.296  -1.434  26.589  0.00  0.00    -0.246 N 
ATOM     18  C   UNL     1      37.584  -1.794  26.810  0.00  0.00    +0.109 A 
ATOM     19  C   UNL     1      37.740  -1.952  28.177  0.00  0.00    +0.090 A 
ATOM     20  C   UNL     1      38.945  -2.318  28.770  0.00  0.00    +0.030 A 
ATOM     21  C   UNL     1      40.017  -2.522  27.889  0.00  0.00    -0.002 A 
ATOM     22  C   UNL     1      39.868  -2.366  26.499  0.00  0.00    +0.007 A 
ATOM     23  C   UNL     1      38.642  -1.997  25.925  0.00  0.00    +0.037 A 
ATOM     24  H   UNL     1      35.866  -1.238  25.675  0.00  0.00    +0.235 HD
ATOM     25  N   UNL     1      36.534  -1.682  28.691  0.00  0.00    -0.247 NA
ENDBRANCH  10  16
BRANCH   3  26
ATOM     26  O   UNL     1      25.907   0.736  27.162  0.00  0.00    -0.339 OA
ATOM     27  H   UNL     1      25.359   0.156  27.678  0.00  0.00    +0.246 HD
ENDBRANCH   3  26
BRANCH   9  28
ATOM     28  C   UNL     1      33.726  -3.067  26.473  0.00  0.00    +0.179 C 
BRANCH  28  29
ATOM     29  C   UNL     1      32.943  -2.654  25.315  0.00  0.00    +0.089 C 
ATOM     30  N   UNL     1      32.322  -2.327  24.394  0.00  0.00    -0.304 NA
ENDBRANCH  28  29
ENDBRANCH   9  28
TORSDOF 4
ENDMDL
MODEL 2
REMARK minimizedAffinity -6.12327719
REMARK minimizedRMSD -1
REMARK  Name = 303
REMARK  5 active torsions:
REMARK  status: ('A' for Active; 'I' for Inactive)
REMARK    1  A    between atoms: C_3  and  O_4
REMARK    2  A    between atoms: C_5  and  C_17
REMARK    3  A    between atoms: C_15  and  C_20
REMARK    4  A    between atoms: C_15  and  C_23
REMARK    5  A    between atoms: C_16  and  C_17
REMARK                            x       y       z     vdW  Elec       q    Type
REMARK                         _______ _______ _______ _____ _____    ______ ____
ROOT
ATOM      1  C   UNL     1      27.570  -1.652  28.182  0.00  0.00    -0.024 A 
ATOM      2  C   UNL     1      26.195  -1.585  27.939  0.00  0.00    +0.000 A 
ATOM      3  C   UNL     1      25.657  -0.508  27.235  0.00  0.00    +0.074 A 
ATOM      4  C   UNL     1      26.510   0.513  26.803  0.00  0.00    +0.008 A 
ATOM      5  C   UNL     1      27.888   0.448  27.051  0.00  0.00    -0.049 A 
ATOM      6  C   UNL     1      28.740   1.650  26.626  0.00  0.00    +0.058 C 
ATOM      7  C   UNL     1      30.162   1.590  27.234  0.00  0.00    +0.018 C 
ATOM      8  C   UNL     1      30.758   0.183  26.976  0.00  0.00    +0.000 C 
ATOM      9  C   UNL     1      32.310   0.091  27.170  0.00  0.00    -0.004 C 
ATOM     10  C   UNL     1      32.818  -1.347  26.806  0.00  0.00    +0.006 C 
ATOM     11  C   UNL     1      32.747  -1.654  25.276  0.00  0.00    -0.039 C 
ATOM     12  C   UNL     1      32.007  -2.406  27.612  0.00  0.00    -0.032 C 
ATOM     13  C   UNL     1      30.468  -2.282  27.436  0.00  0.00    +0.006 C 
ATOM     14  C   UNL     1      29.971  -0.860  27.821  0.00  0.00    +0.030 C 
ATOM     15  C   UNL     1      28.443  -0.681  27.673  0.00  0.00    -0.048 A 
ENDROOT
BRANCH  10  16
ATOM     16  C   UNL     1      34.288  -1.493  27.157  0.00  0.00    +0.114 A 
ATOM     17  N   UNL     1      34.758  -1.560  28.376  0.00  0.00    -0.246 N 
ATOM     18  C   UNL     1      36.102  -1.686  28.260  0.00  0.00    +0.109 A 
ATOM     19  C   UNL     1      36.402  -1.695  26.908  0.00  0.00    +0.090 A 
ATOM     20  C   UNL     1      37.698  -1.814  26.414  0.00  0.00    +0.030 A 
ATOM     21  C   UNL     1      38.708  -1.928  27.381  0.00  0.00    -0.002 A 
ATOM     22  C   UNL     1      38.413  -1.917  28.756  0.00  0.00    +0.007 A 
ATOM     23  C   UNL     1      37.098  -1.795  29.230  0.00  0.00    +0.037 A 
ATOM     24  H   UNL     1      34.222  -1.526  29.253  0.00  0.00    +0.235 HD
ATOM     25  N   UNL     1      35.218  -1.569  26.296  0.00  0.00    -0.247 NA
ENDBRANCH  10  16
BRANCH   3  26
ATOM     26  O   UNL     1      24.283  -0.472  26.981  0.00  0.00    -0.339 OA
ATOM     27  H   UNL     1      23.988   0.310  26.530  0.00  0.00    +0.246 HD
ENDBRANCH   3  26
BRANCH   9  28
ATOM     28  C   UNL     1      32.795   0.555  28.583  0.00  0.00    +0.179 C 
BRANCH  28  29
ATOM     29  C   UNL     1      33.724   1.678  28.514  0.00  0.00    +0.089 C 
ATOM     30  N   UNL     1      34.461   2.568  28.457  0.00  0.00    -0.304 NA
ENDBRANCH  28  29
ENDBRANCH   9  28
TORSDOF 4
ENDMDL
MODEL 3
REMARK minimizedAffinity -5.18747377
REMARK minimizedRMSD -1
REMARK  Name = 303
REMARK  5 active torsions:
REMARK  status: ('A' for Active; 'I' for Inactive)
REMARK    1  A    between atoms: C_3  and  O_4
REMARK    2  A    between atoms: C_5  and  C_17
REMARK    3  A    between atoms: C_15  and  C_20
REMARK    4  A    between atoms: C_15  and  C_23
REMARK    5  A    between atoms: C_16  and  C_17
REMARK                            x       y       z     vdW  Elec       q    Type
REMARK                         _______ _______ _______ _____ _____    ______ ____
ROOT
ATOM      1  C   UNL     1      33.643  -1.979  20.442  0.00  0.00    -0.024 A 
ATOM      2  C   UNL     1      33.603  -2.461  19.131  0.00  0.00    +0.000 A 
ATOM      3  C   UNL     1      32.981  -3.677  18.847  0.00  0.00    +0.074 A 
ATOM      4  C   UNL     1      32.423  -4.413  19.897  0.00  0.00    +0.008 A 
ATOM      5  C   UNL     1      32.466  -3.932  21.212  0.00  0.00    -0.049 A 
ATOM      6  C   UNL     1      31.914  -4.840  22.316  0.00  0.00    +0.058 C 
ATOM      7  C   UNL     1      32.306  -4.336  23.726  0.00  0.00    +0.018 C 
ATOM      8  C   UNL     1      31.971  -2.827  23.829  0.00  0.00    +0.000 C 
ATOM      9  C   UNL     1      31.935  -2.270  25.292  0.00  0.00    -0.004 C 
ATOM     10  C   UNL     1      31.507  -0.761  25.289  0.00  0.00    +0.006 C 
ATOM     11  C   UNL     1      30.006  -0.549  24.912  0.00  0.00    -0.039 C 
ATOM     12  C   UNL     1      32.429   0.039  24.320  0.00  0.00    -0.032 C 
ATOM     13  C   UNL     1      32.481  -0.544  22.880  0.00  0.00    +0.006 C 
ATOM     14  C   UNL     1      32.928  -2.033  22.894  0.00  0.00    +0.030 C 
ATOM     15  C   UNL     1      33.006  -2.665  21.484  0.00  0.00    -0.048 A 
ENDROOT
BRANCH  10  16
ATOM     16  C   UNL     1      31.639  -0.170  26.681  0.00  0.00    +0.114 A 
ATOM     17  N   UNL     1      30.701  -0.196  27.592  0.00  0.00    -0.246 N 
ATOM     18  C   UNL     1      31.209   0.428  28.681  0.00  0.00    +0.109 A 
ATOM     19  C   UNL     1      32.501   0.820  28.369  0.00  0.00    +0.090 A 
ATOM     20  C   UNL     1      33.331   1.492  29.261  0.00  0.00    +0.030 A 
ATOM     21  C   UNL     1      32.778   1.757  30.523  0.00  0.00    -0.002 A 
ATOM     22  C   UNL     1      31.467   1.366  30.848  0.00  0.00    +0.007 A 
ATOM     23  C   UNL     1      30.649   0.689  29.931  0.00  0.00    +0.037 A 
ATOM     24  H   UNL     1      29.761  -0.607  27.506  0.00  0.00    +0.235 HD
ATOM     25  N   UNL     1      32.685   0.410  27.108  0.00  0.00    -0.247 NA
ENDBRANCH  10  16
BRANCH   3  26
ATOM     26  O   UNL     1      32.932  -4.130  17.525  0.00  0.00    -0.339 OA
ATOM     27  H   UNL     1      32.525  -4.982  17.418  0.00  0.00    +0.246 HD
ENDBRANCH   3  26
BRANCH   9  28
ATOM     28  C   UNL     1      33.258  -2.512  26.090  0.00  0.00    +0.179 C 
BRANCH  28  29
ATOM     29  C   UNL     1      33.333  -3.855  26.654  0.00  0.00    +0.089 C 
ATOM     30  N   UNL     1      33.390  -4.922  27.100  0.00  0.00    -0.304 NA
ENDBRANCH  28  29
ENDBRANCH   9  28
TORSDOF 4
ENDMDL
MODEL 4
REMARK minimizedAffinity -5.08087111
REMARK minimizedRMSD -1
REMARK  Name = 303
REMARK  5 active torsions:
REMARK  status: ('A' for Active; 'I' for Inactive)
REMARK    1  A    between atoms: C_3  and  O_4
REMARK    2  A    between atoms: C_5  and  C_17
REMARK    3  A    between atoms: C_15  and  C_20
REMARK    4  A    between atoms: C_15  and  C_23
REMARK    5  A    between atoms: C_16  and  C_17
REMARK                            x       y       z     vdW  Elec       q    Type
REMARK                         _______ _______ _______ _____ _____    ______ ____
ROOT
ATOM      1  C   UNL     1      27.674   0.322  26.427  0.00  0.00    -0.024 A 
ATOM      2  C   UNL     1      26.296   0.541  26.511  0.00  0.00    +0.000 A 
ATOM      3  C   UNL     1      25.468  -0.410  27.107  0.00  0.00    +0.074 A 
ATOM      4  C   UNL     1      26.035  -1.593  27.592  0.00  0.00    +0.008 A 
ATOM      5  C   UNL     1      27.416  -1.814  27.505  0.00  0.00    -0.049 A 
ATOM      6  C   UNL     1      27.946  -3.173  27.976  0.00  0.00    +0.058 C 
ATOM      7  C   UNL     1      29.411  -3.403  27.535  0.00  0.00    +0.018 C 
ATOM      8  C   UNL     1      30.250  -2.156  27.913  0.00  0.00    +0.000 C 
ATOM      9  C   UNL     1      31.799  -2.388  27.899  0.00  0.00    -0.004 C 
ATOM     10  C   UNL     1      32.546  -1.094  28.374  0.00  0.00    +0.006 C 
ATOM     11  C   UNL     1      32.359  -0.801  29.898  0.00  0.00    -0.039 C 
ATOM     12  C   UNL     1      32.072   0.123  27.524  0.00  0.00    -0.032 C 
ATOM     13  C   UNL     1      30.530   0.321  27.520  0.00  0.00    +0.006 C 
ATOM     14  C   UNL     1      29.800  -0.960  27.026  0.00  0.00    +0.030 C 
ATOM     15  C   UNL     1      28.261  -0.817  26.993  0.00  0.00    -0.048 A 
ENDROOT
BRANCH  10  16
ATOM     16  C   UNL     1      34.045  -1.253  28.197  0.00  0.00    +0.114 A 
ATOM     17  N   UNL     1      34.887  -1.497  29.168  0.00  0.00    -0.246 N 
ATOM     18  C   UNL     1      36.115  -1.567  28.600  0.00  0.00    +0.109 A 
ATOM     19  C   UNL     1      35.954  -1.358  27.240  0.00  0.00    +0.090 A 
ATOM     20  C   UNL     1      37.013  -1.365  26.337  0.00  0.00    +0.030 A 
ATOM     21  C   UNL     1      38.281  -1.600  26.890  0.00  0.00    -0.002 A 
ATOM     22  C   UNL     1      38.454  -1.811  28.269  0.00  0.00    +0.007 A 
ATOM     23  C   UNL     1      37.370  -1.799  29.160  0.00  0.00    +0.037 A 
ATOM     24  H   UNL     1      34.669  -1.613  30.167  0.00  0.00    +0.235 HD
ATOM     25  N   UNL     1      34.639  -1.171  27.078  0.00  0.00    -0.247 NA
ENDBRANCH  10  16
BRANCH   3  26
ATOM     26  O   UNL     1      24.096  -0.161  27.203  0.00  0.00    -0.339 OA
ATOM     27  H   UNL     1      23.594  -0.871  27.587  0.00  0.00    +0.246 HD
ENDBRANCH   3  26
BRANCH   9  28
ATOM     28  C   UNL     1      32.342  -2.923  26.534  0.00  0.00    +0.179 C 
BRANCH  28  29
ATOM     29  C   UNL     1      33.082  -4.172  26.677  0.00  0.00    +0.089 C 
ATOM     30  N   UNL     1      33.670  -5.162  26.793  0.00  0.00    -0.304 NA
ENDBRANCH  28  29
ENDBRANCH   9  28
TORSDOF 4
ENDMDL
MODEL 5
REMARK minimizedAffinity -4.29136944
REMARK minimizedRMSD -1
REMARK  Name = 303
REMARK  5 active torsions:
REMARK  status: ('A' for Active; 'I' for Inactive)
REMARK    1  A    between atoms: C_3  and  O_4
REMARK    2  A    between atoms: C_5  and  C_17
REMARK    3  A    between atoms: C_15  and  C_20
REMARK    4  A    between atoms: C_15  and  C_23
REMARK    5  A    between atoms: C_16  and  C_17
REMARK                            x       y       z     vdW  Elec       q    Type
REMARK                         _______ _______ _______ _____ _____    ______ ____
ROOT
ATOM      1  C   UNL     1      36.655  -1.509  26.101  0.00  0.00    -0.024 A 
ATOM      2  C   UNL     1      38.005  -1.868  26.117  0.00  0.00    +0.000 A 
ATOM      3  C   UNL     1      38.670  -2.050  27.330  0.00  0.00    +0.074 A 
ATOM      4  C   UNL     1      37.972  -1.841  28.523  0.00  0.00    +0.008 A 
ATOM      5  C   UNL     1      36.619  -1.478  28.507  0.00  0.00    -0.049 A 
ATOM      6  C   UNL     1      35.951  -1.179  29.855  0.00  0.00    +0.058 C 
ATOM      7  C   UNL     1      34.576  -0.492  29.675  0.00  0.00    +0.018 C 
ATOM      8  C   UNL     1      33.745  -1.298  28.646  0.00  0.00    +0.000 C 
ATOM      9  C   UNL     1      32.213  -0.971  28.653  0.00  0.00    -0.004 C 
ATOM     10  C   UNL     1      31.456  -1.896  27.637  0.00  0.00    +0.006 C 
ATOM     11  C   UNL     1      31.387  -3.387  28.098  0.00  0.00    -0.039 C 
ATOM     12  C   UNL     1      32.128  -1.789  26.235  0.00  0.00    -0.032 C 
ATOM     13  C   UNL     1      33.654  -2.083  26.248  0.00  0.00    +0.006 C 
ATOM     14  C   UNL     1      34.398  -1.146  27.242  0.00  0.00    +0.030 C 
ATOM     15  C   UNL     1      35.924  -1.389  27.291  0.00  0.00    -0.048 A 
ENDROOT
BRANCH  10  16
ATOM     16  C   UNL     1      30.005  -1.467  27.512  0.00  0.00    +0.114 A 
ATOM     17  N   UNL     1      29.601  -0.374  26.918  0.00  0.00    -0.246 N 
ATOM     18  C   UNL     1      28.250  -0.361  27.022  0.00  0.00    +0.109 A 
ATOM     19  C   UNL     1      27.876  -1.507  27.703  0.00  0.00    +0.090 A 
ATOM     20  C   UNL     1      26.552  -1.826  27.990  0.00  0.00    +0.030 A 
ATOM     21  C   UNL     1      25.594  -0.904  27.541  0.00  0.00    -0.002 A 
ATOM     22  C   UNL     1      25.965   0.263  26.851  0.00  0.00    +0.007 A 
ATOM     23  C   UNL     1      27.307   0.563  26.574  0.00  0.00    +0.037 A 
ATOM     24  H   UNL     1      30.185   0.339  26.461  0.00  0.00    +0.235 HD
ATOM     25  N   UNL     1      29.027  -2.135  27.970  0.00  0.00    -0.247 NA
ENDBRANCH  10  16
BRANCH   3  26
ATOM     26  O   UNL     1      40.015  -2.432  27.323  0.00  0.00    -0.339 OA
ATOM     27  H   UNL     1      40.408  -2.499  28.186  0.00  0.00    +0.246 HD
ENDBRANCH   3  26
BRANCH   9  28
ATOM     28  C   UNL     1      31.892   0.544  28.433  0.00  0.00    +0.179 C 
BRANCH  28  29
ATOM     29  C   UNL     1      31.745   1.272  29.688  0.00  0.00    +0.089 C 
ATOM     30  N   UNL     1      31.630   1.848  30.686  0.00  0.00    -0.304 NA
ENDBRANCH  28  29
ENDBRANCH   9  28
TORSDOF 4
ENDMDL
MODEL 6
REMARK minimizedAffinity -2.35969996
REMARK minimizedRMSD -1
REMARK  Name = 303
REMARK  5 active torsions:
REMARK  status: ('A' for Active; 'I' for Inactive)
REMARK    1  A    between atoms: C_3  and  O_4
REMARK    2  A    between atoms: C_5  and  C_17
REMARK    3  A    between atoms: C_15  and  C_20
REMARK    4  A    between atoms: C_15  and  C_23
REMARK    5  A    between atoms: C_16  and  C_17
REMARK                            x       y       z     vdW  Elec       q    Type
REMARK                         _______ _______ _______ _____ _____    ______ ____
ROOT
ATOM      1  C   UNL     1      33.194   1.438  28.954  0.00  0.00    -0.024 A 
ATOM      2  C   UNL     1      33.105   1.993  30.233  0.00  0.00    +0.000 A 
ATOM      3  C   UNL     1      31.919   1.894  30.962  0.00  0.00    +0.074 A 
ATOM      4  C   UNL     1      30.819   1.257  30.381  0.00  0.00    +0.008 A 
ATOM      5  C   UNL     1      30.906   0.704  29.097  0.00  0.00    -0.049 A 
ATOM      6  C   UNL     1      29.630   0.104  28.496  0.00  0.00    +0.058 C 
ATOM      7  C   UNL     1      29.783  -0.177  26.982  0.00  0.00    +0.018 C 
ATOM      8  C   UNL     1      31.101  -0.958  26.748  0.00  0.00    +0.000 C 
ATOM      9  C   UNL     1      31.201  -1.655  25.349  0.00  0.00    -0.004 C 
ATOM     10  C   UNL     1      32.530  -2.482  25.248  0.00  0.00    +0.006 C 
ATOM     11  C   UNL     1      32.530  -3.756  26.153  0.00  0.00    -0.039 C 
ATOM     12  C   UNL     1      33.741  -1.566  25.598  0.00  0.00    -0.032 C 
ATOM     13  C   UNL     1      33.613  -0.855  26.974  0.00  0.00    +0.006 C 
ATOM     14  C   UNL     1      32.303  -0.021  27.055  0.00  0.00    +0.030 C 
ATOM     15  C   UNL     1      32.126   0.717  28.402  0.00  0.00    -0.048 A 
ENDROOT
BRANCH  10  16
ATOM     16  C   UNL     1      32.716  -3.014  23.839  0.00  0.00    +0.114 A 
ATOM     17  N   UNL     1      33.304  -2.363  22.869  0.00  0.00    -0.246 N 
ATOM     18  C   UNL     1      33.266  -3.174  21.785  0.00  0.00    +0.109 A 
ATOM     19  C   UNL     1      32.629  -4.344  22.166  0.00  0.00    +0.090 A 
ATOM     20  C   UNL     1      32.414  -5.413  21.301  0.00  0.00    +0.030 A 
ATOM     21  C   UNL     1      32.888  -5.238  19.992  0.00  0.00    -0.002 A 
ATOM     22  C   UNL     1      33.534  -4.054  19.595  0.00  0.00    +0.007 A 
ATOM     23  C   UNL     1      33.739  -2.990  20.487  0.00  0.00    +0.037 A 
ATOM     24  H   UNL     1      33.717  -1.421  22.913  0.00  0.00    +0.235 HD
ATOM     25  N   UNL     1      32.320  -4.158  23.456  0.00  0.00    -0.247 NA
ENDBRANCH  10  16
BRANCH   3  26
ATOM     26  O   UNL     1      31.859   2.436  32.249  0.00  0.00    -0.339 OA
ATOM     27  H   UNL     1      31.008   2.362  32.666  0.00  0.00    +0.246 HD
ENDBRANCH   3  26
BRANCH   9  28
ATOM     28  C   UNL     1      31.016  -0.675  24.144  0.00  0.00    +0.179 C 
BRANCH  28  29
ATOM     29  C   UNL     1      30.456  -1.332  22.969  0.00  0.00    +0.089 C 
ATOM     30  N   UNL     1      30.011  -1.856  22.038  0.00  0.00    -0.304 NA
ENDBRANCH  28  29
ENDBRANCH   9  28
TORSDOF 4
ENDMDL
MODEL 7
REMARK minimizedAffinity -1.73184788
REMARK minimizedRMSD -1
REMARK  Name = 303
REMARK  5 active torsions:
REMARK  status: ('A' for Active; 'I' for Inactive)
REMARK    1  A    between atoms: C_3  and  O_4
REMARK    2  A    between atoms: C_5  and  C_17
REMARK    3  A    between atoms: C_15  and  C_20
REMARK    4  A    between atoms: C_15  and  C_23
REMARK    5  A    between atoms: C_16  and  C_17
REMARK                            x       y       z     vdW  Elec       q    Type
REMARK                         _______ _______ _______ _____ _____    ______ ____
ROOT
ATOM      1  C   UNL     1      35.238  -3.315  17.918  0.00  0.00    -0.024 A 
ATOM      2  C   UNL     1      35.565  -3.177  16.567  0.00  0.00    +0.000 A 
ATOM      3  C   UNL     1      34.557  -3.058  15.609  0.00  0.00    +0.074 A 
ATOM      4  C   UNL     1      33.222  -3.106  16.021  0.00  0.00    +0.008 A 
ATOM      5  C   UNL     1      32.894  -3.248  17.375  0.00  0.00    -0.049 A 
ATOM      6  C   UNL     1      31.410  -3.384  17.734  0.00  0.00    +0.058 C 
ATOM      7  C   UNL     1      31.212  -3.848  19.197  0.00  0.00    +0.018 C 
ATOM      8  C   UNL     1      32.077  -2.959  20.126  0.00  0.00    +0.000 C 
ATOM      9  C   UNL     1      31.689  -3.036  21.641  0.00  0.00    -0.004 C 
ATOM     10  C   UNL     1      32.567  -2.042  22.477  0.00  0.00    +0.006 C 
ATOM     11  C   UNL     1      32.218  -0.542  22.213  0.00  0.00    -0.039 C 
ATOM     12  C   UNL     1      34.075  -2.308  22.187  0.00  0.00    -0.032 C 
ATOM     13  C   UNL     1      34.440  -2.262  20.677  0.00  0.00    +0.006 C 
ATOM     14  C   UNL     1      33.579  -3.267  19.860  0.00  0.00    +0.030 C 
ATOM     15  C   UNL     1      33.905  -3.271  18.349  0.00  0.00    -0.048 A 
ENDROOT
BRANCH  10  16
ATOM     16  C   UNL     1      32.319  -2.236  23.962  0.00  0.00    +0.114 A 
ATOM     17  N   UNL     1      33.132  -2.855  24.778  0.00  0.00    -0.246 N 
ATOM     18  C   UNL     1      32.552  -2.813  26.001  0.00  0.00    +0.109 A 
ATOM     19  C   UNL     1      31.354  -2.131  25.868  0.00  0.00    +0.090 A 
ATOM     20  C   UNL     1      30.488  -1.893  26.931  0.00  0.00    +0.030 A 
ATOM     21  C   UNL     1      30.903  -2.393  28.174  0.00  0.00    -0.002 A 
ATOM     22  C   UNL     1      32.116  -3.089  28.320  0.00  0.00    +0.007 A 
ATOM     23  C   UNL     1      32.973  -3.316  27.232  0.00  0.00    +0.037 A 
ATOM     24  H   UNL     1      34.036  -3.290  24.545  0.00  0.00    +0.235 HD
ATOM     25  N   UNL     1      31.288  -1.810  24.569  0.00  0.00    -0.247 NA
ENDBRANCH  10  16
BRANCH   3  26
ATOM     26  O   UNL     1      34.906  -2.897  14.265  0.00  0.00    -0.339 OA
ATOM     27  H   UNL     1      34.166  -2.860  13.669  0.00  0.00    +0.246 HD
ENDBRANCH   3  26
BRANCH   9  28
ATOM     28  C   UNL     1      31.712  -4.487  22.224  0.00  0.00    +0.179 C 
BRANCH  28  29
ATOM     29  C   UNL     1      32.645  -5.358  21.518  0.00  0.00    +0.089 C 
ATOM     30  N   UNL     1      33.384  -6.051  20.959  0.00  0.00    -0.304 NA
ENDBRANCH  28  29
ENDBRANCH   9  28
TORSDOF 4
ENDMDL
MODEL 8
REMARK minimizedAffinity -1.72470188
REMARK minimizedRMSD -1
REMARK  Name = 303
REMARK  5 active torsions:
REMARK  status: ('A' for Active; 'I' for Inactive)
REMARK    1  A    between atoms: C_3  and  O_4
REMARK    2  A    between atoms: C_5  and  C_17
REMARK    3  A    between atoms: C_15  and  C_20
REMARK    4  A    between atoms: C_15  and  C_23
REMARK    5  A    between atoms: C_16  and  C_17
REMARK                            x       y       z     vdW  Elec       q    Type
REMARK                         _______ _______ _______ _____ _____    ______ ____
ROOT
ATOM      1  C   UNL     1      31.244  -0.764  24.639  0.00  0.00    -0.024 A 
ATOM      2  C   UNL     1      31.044  -0.449  25.986  0.00  0.00    +0.000 A 
ATOM      3  C   UNL     1      31.368  -1.373  26.979  0.00  0.00    +0.074 A 
ATOM      4  C   UNL     1      31.867  -2.624  26.604  0.00  0.00    +0.008 A 
ATOM      5  C   UNL     1      32.064  -2.942  25.254  0.00  0.00    -0.049 A 
ATOM      6  C   UNL     1      32.528  -4.365  24.921  0.00  0.00    +0.058 C 
ATOM      7  C   UNL     1      32.399  -4.674  23.411  0.00  0.00    +0.018 C 
ATOM      8  C   UNL     1      33.049  -3.520  22.606  0.00  0.00    +0.000 C 
ATOM      9  C   UNL     1      33.353  -3.866  21.109  0.00  0.00    -0.004 C 
ATOM     10  C   UNL     1      34.082  -2.665  20.412  0.00  0.00    +0.006 C 
ATOM     11  C   UNL     1      35.547  -2.460  20.915  0.00  0.00    -0.039 C 
ATOM     12  C   UNL     1      33.250  -1.363  20.614  0.00  0.00    -0.032 C 
ATOM     13  C   UNL     1      32.927  -1.050  22.101  0.00  0.00    +0.006 C 
ATOM     14  C   UNL     1      32.185  -2.238  22.777  0.00  0.00    +0.030 C 
ATOM     15  C   UNL     1      31.830  -1.979  24.259  0.00  0.00    -0.048 A 
ENDROOT
BRANCH  10  16
ATOM     16  C   UNL     1      34.222  -2.924  18.922  0.00  0.00    +0.114 A 
ATOM     17  N   UNL     1      35.361  -2.997  18.285  0.00  0.00    -0.246 N 
ATOM     18  C   UNL     1      35.057  -3.238  16.987  0.00  0.00    +0.109 A 
ATOM     19  C   UNL     1      33.677  -3.310  16.891  0.00  0.00    +0.090 A 
ATOM     20  C   UNL     1      33.006  -3.552  15.696  0.00  0.00    +0.030 A 
ATOM     21  C   UNL     1      33.821  -3.722  14.567  0.00  0.00    -0.002 A 
ATOM     22  C   UNL     1      35.222  -3.648  14.653  0.00  0.00    +0.007 A 
ATOM     23  C   UNL     1      35.876  -3.403  15.870  0.00  0.00    +0.037 A 
ATOM     24  H   UNL     1      36.305  -2.893  18.681  0.00  0.00    +0.235 HD
ATOM     25  N   UNL     1      33.238  -3.103  18.139  0.00  0.00    -0.247 NA
ENDBRANCH  10  16
BRANCH   3  26
ATOM     26  O   UNL     1      31.182  -1.030  28.322  0.00  0.00    -0.339 OA
ATOM     27  H   UNL     1      31.390  -1.724  28.937  0.00  0.00    +0.246 HD
ENDBRANCH   3  26
BRANCH   9  28
ATOM     28  C   UNL     1      32.099  -4.349  20.308  0.00  0.00    +0.179 C 
BRANCH  28  29
ATOM     29  C   UNL     1      30.902  -3.580  20.627  0.00  0.00    +0.089 C 
ATOM     30  N   UNL     1      29.952  -2.969  20.878  0.00  0.00    -0.304 NA
ENDBRANCH  28  29
ENDBRANCH   9  28
TORSDOF 4
ENDMDL
MODEL 9
REMARK minimizedAffinity -1.68558538
REMARK minimizedRMSD -1
REMARK  Name = 303
REMARK  5 active torsions:
REMARK  status: ('A' for Active; 'I' for Inactive)
REMARK    1  A    between atoms: C_3  and  O_4
REMARK    2  A    between atoms: C_5  and  C_17
REMARK    3  A    between atoms: C_15  and  C_20
REMARK    4  A    between atoms: C_15  and  C_23
REMARK    5  A    between atoms: C_16  and  C_17
REMARK                            x       y       z     vdW  Elec       q    Type
REMARK                         _______ _______ _______ _____ _____    ______ ____
ROOT
ATOM      1  C   UNL     1      29.718  -2.597  21.006  0.00  0.00    -0.024 A 
ATOM      2  C   UNL     1      29.574  -3.364  19.847  0.00  0.00    +0.000 A 
ATOM      3  C   UNL     1      30.673  -4.031  19.305  0.00  0.00    +0.074 A 
ATOM      4  C   UNL     1      31.919  -3.897  19.924  0.00  0.00    +0.008 A 
ATOM      5  C   UNL     1      32.064  -3.124  21.083  0.00  0.00    -0.049 A 
ATOM      6  C   UNL     1      33.480  -2.954  21.648  0.00  0.00    +0.058 C 
ATOM      7  C   UNL     1      33.541  -1.840  22.720  0.00  0.00    +0.018 C 
ATOM      8  C   UNL     1      32.402  -2.068  23.745  0.00  0.00    +0.000 C 
ATOM      9  C   UNL     1      32.571  -1.277  25.087  0.00  0.00    -0.004 C 
ATOM     10  C   UNL     1      31.413  -1.642  26.081  0.00  0.00    +0.006 C 
ATOM     11  C   UNL     1      31.521  -3.096  26.641  0.00  0.00    -0.039 C 
ATOM     12  C   UNL     1      30.039  -1.430  25.379  0.00  0.00    -0.032 C 
ATOM     13  C   UNL     1      29.897  -2.193  24.033  0.00  0.00    +0.006 C 
ATOM     14  C   UNL     1      31.037  -1.808  23.047  0.00  0.00    +0.030 C 
ATOM     15  C   UNL     1      30.942  -2.532  21.684  0.00  0.00    -0.048 A 
ENDROOT
BRANCH  10  16
ATOM     16  C   UNL     1      31.472  -0.753  27.310  0.00  0.00    +0.114 A 
ATOM     17  N   UNL     1      32.550  -0.532  28.017  0.00  0.00    -0.246 N 
ATOM     18  C   UNL     1      32.186   0.306  29.017  0.00  0.00    +0.109 A 
ATOM     19  C   UNL     1      30.836   0.574  28.861  0.00  0.00    +0.090 A 
ATOM     20  C   UNL     1      30.119   1.409  29.714  0.00  0.00    +0.030 A 
ATOM     21  C   UNL     1      30.855   1.977  30.764  0.00  0.00    -0.002 A 
ATOM     22  C   UNL     1      32.225   1.709  30.933  0.00  0.00    +0.007 A 
ATOM     23  C   UNL     1      32.925   0.864  30.059  0.00  0.00    +0.037 A 
ATOM     24  H   UNL     1      33.492  -0.914  27.853  0.00  0.00    +0.235 HD
ATOM     25  N   UNL     1      30.473  -0.125  27.778  0.00  0.00    -0.247 NA
ENDBRANCH  10  16
BRANCH   3  26
ATOM     26  O   UNL     1      30.502  -4.812  18.158  0.00  0.00    -0.339 OA
ATOM     27  H   UNL     1      31.303  -5.204  17.828  0.00  0.00    +0.246 HD
ENDBRANCH   3  26
BRANCH   9  28
ATOM     28  C   UNL     1      32.725   0.267  24.892  0.00  0.00    +0.179 C 
BRANCH  28  29
ATOM     29  C   UNL     1      33.729   0.845  25.778  0.00  0.00    +0.089 C 
ATOM     30  N   UNL     1      34.524   1.305  26.481  0.00  0.00    -0.304 NA
ENDBRANCH  28  29
ENDBRANCH   9  28
TORSDOF 4
ENDMDL
MODEL 10
REMARK minimizedAffinity -1.04952145
REMARK minimizedRMSD -1
REMARK  Name = 303
REMARK  5 active torsions:
REMARK  status: ('A' for Active; 'I' for Inactive)
REMARK    1  A    between atoms: C_3  and  O_4
REMARK    2  A    between atoms: C_5  and  C_17
REMARK    3  A    between atoms: C_15  and  C_20
REMARK    4  A    between atoms: C_15  and  C_23
REMARK    5  A    between atoms: C_16  and  C_17
REMARK                            x       y       z     vdW  Elec       q    Type
REMARK                         _______ _______ _______ _____ _____    ______ ____
ROOT
ATOM      1  C   UNL     1      31.736  -0.903  24.174  0.00  0.00    -0.024 A 
ATOM      2  C   UNL     1      31.346  -0.862  25.515  0.00  0.00    +0.000 A 
ATOM      3  C   UNL     1      31.313  -2.032  26.274  0.00  0.00    +0.074 A 
ATOM      4  C   UNL     1      31.649  -3.245  25.664  0.00  0.00    +0.008 A 
ATOM      5  C   UNL     1      32.036  -3.287  24.318  0.00  0.00    -0.049 A 
ATOM      6  C   UNL     1      32.300  -4.665  23.700  0.00  0.00    +0.058 C 
ATOM      7  C   UNL     1      32.404  -4.594  22.158  0.00  0.00    +0.018 C 
ATOM      8  C   UNL     1      33.383  -3.456  21.774  0.00  0.00    +0.000 C 
ATOM      9  C   UNL     1      33.897  -3.515  20.296  0.00  0.00    -0.004 C 
ATOM     10  C   UNL     1      34.940  -2.373  20.037  0.00  0.00    +0.006 C 
ATOM     11  C   UNL     1      36.298  -2.604  20.775  0.00  0.00    -0.039 C 
ATOM     12  C   UNL     1      34.324  -1.002  20.448  0.00  0.00    -0.032 C 
ATOM     13  C   UNL     1      33.788  -0.968  21.907  0.00  0.00    +0.006 C 
ATOM     14  C   UNL     1      32.738  -2.090  22.146  0.00  0.00    +0.030 C 
ATOM     15  C   UNL     1      32.163  -2.099  23.581  0.00  0.00    -0.048 A 
ENDROOT
BRANCH  10  16
ATOM     16  C   UNL     1      35.309  -2.317  18.566  0.00  0.00    +0.114 A 
ATOM     17  N   UNL     1      35.327  -3.350  17.764  0.00  0.00    -0.246 N 
ATOM     18  C   UNL     1      35.704  -2.883  16.549  0.00  0.00    +0.109 A 
ATOM     19  C   UNL     1      35.902  -1.517  16.673  0.00  0.00    +0.090 A 
ATOM     20  C   UNL     1      36.294  -0.703  15.615  0.00  0.00    +0.030 A 
ATOM     21  C   UNL     1      36.483  -1.354  14.387  0.00  0.00    -0.002 A 
ATOM     22  C   UNL     1      36.287  -2.740  14.251  0.00  0.00    +0.007 A 
ATOM     23  C   UNL     1      35.891  -3.540  15.334  0.00  0.00    +0.037 A 
ATOM     24  H   UNL     1      35.102  -4.326  18.000  0.00  0.00    +0.235 HD
ATOM     25  N   UNL     1      35.636  -1.251  17.958  0.00  0.00    -0.247 NA
ENDBRANCH  10  16
BRANCH   3  26
ATOM     26  O   UNL     1      30.942  -1.965  27.620  0.00  0.00    -0.339 OA
ATOM     27  H   UNL     1      30.908  -2.807  28.060  0.00  0.00    +0.246 HD
ENDBRANCH   3  26
BRANCH   9  28
ATOM     28  C   UNL     1      32.750  -3.527  19.231  0.00  0.00    +0.179 C 
BRANCH  28  29
ATOM     29  C   UNL     1      31.462  -3.903  19.802  0.00  0.00    +0.089 C 
ATOM     30  N   UNL     1      30.440  -4.203  20.254  0.00  0.00    -0.304 NA
ENDBRANCH  28  29
ENDBRANCH   9  28
TORSDOF 4
ENDMDL
MODEL 11
REMARK minimizedAffinity -0.710373044
REMARK minimizedRMSD -1
REMARK  Name = 303
REMARK  5 active torsions:
REMARK  status: ('A' for Active; 'I' for Inactive)
REMARK    1  A    between atoms: C_3  and  O_4
REMARK    2  A    between atoms: C_5  and  C_17
REMARK    3  A    between atoms: C_15  and  C_20
REMARK    4  A    between atoms: C_15  and  C_23
REMARK    5  A    between atoms: C_16  and  C_17
REMARK                            x       y       z     vdW  Elec       q    Type
REMARK                         _______ _______ _______ _____ _____    ______ ____
ROOT
ATOM      1  C   UNL     1      34.261  -2.280  18.833  0.00  0.00    -0.024 A 
ATOM      2  C   UNL     1      34.234  -2.378  17.440  0.00  0.00    +0.000 A 
ATOM      3  C   UNL     1      33.238  -3.123  16.807  0.00  0.00    +0.074 A 
ATOM      4  C   UNL     1      32.289  -3.788  17.590  0.00  0.00    +0.008 A 
ATOM      5  C   UNL     1      32.319  -3.692  18.987  0.00  0.00    -0.049 A 
ATOM      6  C   UNL     1      31.300  -4.524  19.775  0.00  0.00    +0.058 C 
ATOM      7  C   UNL     1      31.642  -4.575  21.283  0.00  0.00    +0.018 C 
ATOM      8  C   UNL     1      31.907  -3.133  21.786  0.00  0.00    +0.000 C 
ATOM      9  C   UNL     1      31.873  -2.974  23.344  0.00  0.00    -0.004 C 
ATOM     10  C   UNL     1      32.069  -1.469  23.740  0.00  0.00    +0.006 C 
ATOM     11  C   UNL     1      30.841  -0.573  23.378  0.00  0.00    -0.039 C 
ATOM     12  C   UNL     1      33.362  -0.918  23.067  0.00  0.00    -0.032 C 
ATOM     13  C   UNL     1      33.398  -1.113  21.525  0.00  0.00    +0.006 C 
ATOM     14  C   UNL     1      33.224  -2.611  21.144  0.00  0.00    +0.030 C 
ATOM     15  C   UNL     1      33.260  -2.865  19.620  0.00  0.00    -0.048 A 
ENDROOT
BRANCH  10  16
ATOM     16  C   UNL     1      32.211  -1.333  25.245  0.00  0.00    +0.114 A 
ATOM     17  N   UNL     1      33.351  -1.251  25.880  0.00  0.00    -0.246 N 
ATOM     18  C   UNL     1      33.048  -1.141  27.196  0.00  0.00    +0.109 A 
ATOM     19  C   UNL     1      31.668  -1.156  27.306  0.00  0.00    +0.090 A 
ATOM     20  C   UNL     1      30.997  -1.058  28.521  0.00  0.00    +0.030 A 
ATOM     21  C   UNL     1      31.813  -0.940  29.656  0.00  0.00    -0.002 A 
ATOM     22  C   UNL     1      33.216  -0.926  29.556  0.00  0.00    +0.007 A 
ATOM     23  C   UNL     1      33.868  -1.027  28.318  0.00  0.00    +0.037 A 
ATOM     24  H   UNL     1      34.295  -1.266  25.470  0.00  0.00    +0.235 HD
ATOM     25  N   UNL     1      31.228  -1.279  26.047  0.00  0.00    -0.247 NA
ENDBRANCH  10  16
BRANCH   3  26
ATOM     26  O   UNL     1      33.215  -3.190  15.411  0.00  0.00    -0.339 OA
ATOM     27  H   UNL     1      32.531  -3.745  15.056  0.00  0.00    +0.246 HD
ENDBRANCH   3  26
BRANCH   9  28
ATOM     28  C   UNL     1      32.863  -3.923  24.095  0.00  0.00    +0.179 C 
BRANCH  28  29
ATOM     29  C   UNL     1      32.489  -4.131  25.489  0.00  0.00    +0.089 C 
ATOM     30  N   UNL     1      32.193  -4.295  26.596  0.00  0.00    -0.304 NA
ENDBRANCH  28  29
ENDBRANCH   9  28
TORSDOF 4
ENDMDL
MODEL 12
REMARK minimizedAffinity -0.620110691
REMARK minimizedRMSD -1
REMARK  Name = 303
REMARK  5 active torsions:
REMARK  status: ('A' for Active; 'I' for Inactive)
REMARK    1  A    between atoms: C_3  and  O_4
REMARK    2  A    between atoms: C_5  and  C_17
REMARK    3  A    between atoms: C_15  and  C_20
REMARK    4  A    between atoms: C_15  and  C_23
REMARK    5  A    between atoms: C_16  and  C_17
REMARK                            x       y       z     vdW  Elec       q    Type
REMARK                         _______ _______ _______ _____ _____    ______ ____
ROOT
ATOM      1  C   UNL     1      32.915  -4.292  23.392  0.00  0.00    -0.024 A 
ATOM      2  C   UNL     1      33.105  -4.926  22.161  0.00  0.00    +0.000 A 
ATOM      3  C   UNL     1      32.551  -4.386  21.000  0.00  0.00    +0.074 A 
ATOM      4  C   UNL     1      31.785  -3.220  21.093  0.00  0.00    +0.008 A 
ATOM      5  C   UNL     1      31.592  -2.587  22.327  0.00  0.00    -0.049 A 
ATOM      6  C   UNL     1      30.665  -1.366  22.359  0.00  0.00    +0.058 C 
ATOM      7  C   UNL     1      30.291  -0.965  23.806  0.00  0.00    +0.018 C 
ATOM      8  C   UNL     1      31.585  -0.882  24.653  0.00  0.00    +0.000 C 
ATOM      9  C   UNL     1      31.424  -0.113  26.008  0.00  0.00    -0.004 C 
ATOM     10  C   UNL     1      32.806  -0.016  26.745  0.00  0.00    +0.006 C 
ATOM     11  C   UNL     1      33.812   0.947  26.038  0.00  0.00    -0.039 C 
ATOM     12  C   UNL     1      33.422  -1.440  26.884  0.00  0.00    -0.032 C 
ATOM     13  C   UNL     1      33.545  -2.205  25.537  0.00  0.00    +0.006 C 
ATOM     14  C   UNL     1      32.167  -2.315  24.825  0.00  0.00    +0.030 C 
ATOM     15  C   UNL     1      32.227  -3.074  23.480  0.00  0.00    -0.048 A 
ENDROOT
BRANCH  10  16
ATOM     16  C   UNL     1      32.625   0.571  28.133  0.00  0.00    +0.114 A 
ATOM     17  N   UNL     1      33.598   1.016  28.885  0.00  0.00    -0.246 N 
ATOM     18  C   UNL     1      33.025   1.452  30.032  0.00  0.00    +0.109 A 
ATOM     19  C   UNL     1      31.660   1.247  29.917  0.00  0.00    +0.090 A 
ATOM     20  C   UNL     1      30.751   1.584  30.916  0.00  0.00    +0.030 A 
ATOM     21  C   UNL     1      31.304   2.156  32.072  0.00  0.00    -0.002 A 
ATOM     22  C   UNL     1      32.688   2.365  32.199  0.00  0.00    +0.007 A 
ATOM     23  C   UNL     1      33.585   2.017  31.177  0.00  0.00    +0.037 A 
ATOM     24  H   UNL     1      34.602   1.035  28.658  0.00  0.00    +0.235 HD
ATOM     25  N   UNL     1      31.499   0.696  28.708  0.00  0.00    -0.247 NA
ENDBRANCH  10  16
BRANCH   3  26
ATOM     26  O   UNL     1      32.773  -5.023  19.775  0.00  0.00    -0.339 OA
ATOM     27  H   UNL     1      32.334  -4.617  19.037  0.00  0.00    +0.246 HD
ENDBRANCH   3  26
BRANCH   9  28
ATOM     28  C   UNL     1      30.297  -0.688  26.928  0.00  0.00    +0.179 C 
BRANCH  28  29
ATOM     29  C   UNL     1      29.052   0.063  26.823  0.00  0.00    +0.089 C 
ATOM     30  N   UNL     1      28.065   0.660  26.737  0.00  0.00    -0.304 NA
ENDBRANCH  28  29
ENDBRANCH   9  28
TORSDOF 4
ENDMDL
MODEL 13
REMARK minimizedAffinity 0.569852948
REMARK minimizedRMSD -1
REMARK  Name = 303
REMARK  5 active torsions:
REMARK  status: ('A' for Active; 'I' for Inactive)
REMARK    1  A    between atoms: C_3  and  O_4
REMARK    2  A    between atoms: C_5  and  C_17
REMARK    3  A    between atoms: C_15  and  C_20
REMARK    4  A    between atoms: C_15  and  C_23
REMARK    5  A    between atoms: C_16  and  C_17
REMARK                            x       y       z     vdW  Elec       q    Type
REMARK                         _______ _______ _______ _____ _____    ______ ____
ROOT
ATOM      1  C   UNL     1      35.523  -0.254  27.571  0.00  0.00    -0.024 A 
ATOM      2  C   UNL     1      36.897  -0.241  27.316  0.00  0.00    +0.000 A 
ATOM      3  C   UNL     1      37.501  -1.318  26.667  0.00  0.00    +0.074 A 
ATOM      4  C   UNL     1      36.716  -2.416  26.302  0.00  0.00    +0.008 A 
ATOM      5  C   UNL     1      35.340  -2.430  26.562  0.00  0.00    -0.049 A 
ATOM      6  C   UNL     1      34.567  -3.708  26.214  0.00  0.00    +0.058 C 
ATOM      7  C   UNL     1      33.149  -3.710  26.833  0.00  0.00    +0.018 C 
ATOM      8  C   UNL     1      32.457  -2.363  26.505  0.00  0.00    +0.000 C 
ATOM      9  C   UNL     1      30.905  -2.366  26.711  0.00  0.00    -0.004 C 
ATOM     10  C   UNL     1      30.297  -0.988  26.274  0.00  0.00    +0.006 C 
ATOM     11  C   UNL     1      30.335  -0.763  24.728  0.00  0.00    -0.039 C 
ATOM     12  C   UNL     1      31.040   0.166  27.010  0.00  0.00    -0.032 C 
ATOM     13  C   UNL     1      32.583   0.137  26.824  0.00  0.00    +0.006 C 
ATOM     14  C   UNL     1      33.178  -1.225  27.282  0.00  0.00    +0.030 C 
ATOM     15  C   UNL     1      34.714  -1.308  27.127  0.00  0.00    -0.048 A 
ENDROOT
BRANCH  10  16
ATOM     16  C   UNL     1      28.823  -0.922  26.633  0.00  0.00    +0.114 A 
ATOM     17  N   UNL     1      27.923  -0.252  25.961  0.00  0.00    -0.246 N 
ATOM     18  C   UNL     1      26.745  -0.448  26.600  0.00  0.00    +0.109 A 
ATOM     19  C   UNL     1      26.995  -1.275  27.684  0.00  0.00    +0.090 A 
ATOM     20  C   UNL     1      26.005  -1.692  28.569  0.00  0.00    +0.030 A 
ATOM     21  C   UNL     1      24.712  -1.221  28.300  0.00  0.00    -0.002 A 
ATOM     22  C   UNL     1      24.449  -0.379  27.204  0.00  0.00    +0.007 A 
ATOM     23  C   UNL     1      25.464   0.028  26.326  0.00  0.00    +0.037 A 
ATOM     24  H   UNL     1      28.072   0.314  25.115  0.00  0.00    +0.235 HD
ATOM     25  N   UNL     1      28.310  -1.520  27.629  0.00  0.00    -0.247 NA
ENDBRANCH  10  16
BRANCH   3  26
ATOM     26  O   UNL     1      38.873  -1.275  26.400  0.00  0.00    -0.339 OA
ATOM     27  H   UNL     1      39.217  -2.060  25.989  0.00  0.00    +0.246 HD
ENDBRANCH   3  26
BRANCH   9  28
ATOM     28  C   UNL     1      30.462  -2.782  28.153  0.00  0.00    +0.179 C 
BRANCH  28  29
ATOM     29  C   UNL     1      31.146  -2.018  29.190  0.00  0.00    +0.089 C 
ATOM     30  N   UNL     1      31.689  -1.409  30.011  0.00  0.00    -0.304 NA
ENDBRANCH  28  29
ENDBRANCH   9  28
TORSDOF 4
ENDMDL
MODEL 14
REMARK minimizedAffinity 0.703623474
REMARK minimizedRMSD -1
REMARK  Name = 303
REMARK  5 active torsions:
REMARK  status: ('A' for Active; 'I' for Inactive)
REMARK    1  A    between atoms: C_3  and  O_4
REMARK    2  A    between atoms: C_5  and  C_17
REMARK    3  A    between atoms: C_15  and  C_20
REMARK    4  A    between atoms: C_15  and  C_23
REMARK    5  A    between atoms: C_16  and  C_17
REMARK                            x       y       z     vdW  Elec       q    Type
REMARK                         _______ _______ _______ _____ _____    ______ ____
ROOT
ATOM      1  C   UNL     1      30.334  -1.148  26.636  0.00  0.00    -0.024 A 
ATOM      2  C   UNL     1      30.278  -0.751  27.975  0.00  0.00    +0.000 A 
ATOM      3  C   UNL     1      31.194  -1.257  28.897  0.00  0.00    +0.074 A 
ATOM      4  C   UNL     1      32.147  -2.185  28.465  0.00  0.00    +0.008 A 
ATOM      5  C   UNL     1      32.201  -2.586  27.124  0.00  0.00    -0.049 A 
ATOM      6  C   UNL     1      33.215  -3.673  26.751  0.00  0.00    +0.058 C 
ATOM      7  C   UNL     1      32.955  -4.241  25.335  0.00  0.00    +0.018 C 
ATOM      8  C   UNL     1      32.799  -3.060  24.343  0.00  0.00    +0.000 C 
ATOM      9  C   UNL     1      32.929  -3.460  22.834  0.00  0.00    -0.004 C 
ATOM     10  C   UNL     1      32.838  -2.185  21.925  0.00  0.00    +0.006 C 
ATOM     11  C   UNL     1      34.091  -1.259  22.040  0.00  0.00    -0.039 C 
ATOM     12  C   UNL     1      31.542  -1.392  22.269  0.00  0.00    -0.032 C 
ATOM     13  C   UNL     1      31.409  -1.031  23.775  0.00  0.00    +0.006 C 
ATOM     14  C   UNL     1      31.478  -2.303  24.666  0.00  0.00    +0.030 C 
ATOM     15  C   UNL     1      31.343  -2.005  26.177  0.00  0.00    -0.048 A 
ENDROOT
BRANCH  10  16
ATOM     16  C   UNL     1      32.788  -2.582  20.461  0.00  0.00    +0.114 A 
ATOM     17  N   UNL     1      31.712  -2.984  19.836  0.00  0.00    -0.246 N 
ATOM     18  C   UNL     1      32.085  -3.238  18.558  0.00  0.00    +0.109 A 
ATOM     19  C   UNL     1      33.439  -2.960  18.459  0.00  0.00    +0.090 A 
ATOM     20  C   UNL     1      34.164  -3.105  17.280  0.00  0.00    +0.030 A 
ATOM     21  C   UNL     1      33.434  -3.559  16.171  0.00  0.00    -0.002 A 
ATOM     22  C   UNL     1      32.061  -3.846  16.262  0.00  0.00    +0.007 A 
ATOM     23  C   UNL     1      31.352  -3.692  17.463  0.00  0.00    +0.037 A 
ATOM     24  H   UNL     1      30.766  -3.089  20.227  0.00  0.00    +0.235 HD
ATOM     25  N   UNL     1      33.795  -2.560  19.687  0.00  0.00    -0.247 NA
ENDBRANCH  10  16
BRANCH   3  26
ATOM     26  O   UNL     1      31.135  -0.830  30.227  0.00  0.00    -0.339 OA
ATOM     27  H   UNL     1      31.767  -1.247  30.801  0.00  0.00    +0.246 HD
ENDBRANCH   3  26
BRANCH   9  28
ATOM     28  C   UNL     1      31.931  -4.580  22.392  0.00  0.00    +0.179 C 
BRANCH  28  29
ATOM     29  C   UNL     1      32.484  -5.445  21.357  0.00  0.00    +0.089 C 
ATOM     30  N   UNL     1      32.921  -6.132  20.534  0.00  0.00    -0.304 NA
ENDBRANCH  28  29
ENDBRANCH   9  28
TORSDOF 4
ENDMDL
MODEL 15
REMARK minimizedAffinity 0.768956363
REMARK minimizedRMSD -1
REMARK  Name = 303
REMARK  5 active torsions:
REMARK  status: ('A' for Active; 'I' for Inactive)
REMARK    1  A    between atoms: C_3  and  O_4
REMARK    2  A    between atoms: C_5  and  C_17
REMARK    3  A    between atoms: C_15  and  C_20
REMARK    4  A    between atoms: C_15  and  C_23
REMARK    5  A    between atoms: C_16  and  C_17
REMARK                            x       y       z     vdW  Elec       q    Type
REMARK                         _______ _______ _______ _____ _____    ______ ____
ROOT
ATOM      1  C   UNL     1      33.257  -1.999  28.123  0.00  0.00    -0.024 A 
ATOM      2  C   UNL     1      33.008  -2.099  29.494  0.00  0.00    +0.000 A 
ATOM      3  C   UNL     1      31.701  -2.034  29.978  0.00  0.00    +0.074 A 
ATOM      4  C   UNL     1      30.653  -1.840  29.073  0.00  0.00    +0.008 A 
ATOM      5  C   UNL     1      30.903  -1.736  27.698  0.00  0.00    -0.049 A 
ATOM      6  C   UNL     1      29.711  -1.433  26.783  0.00  0.00    +0.058 C 
ATOM      7  C   UNL     1      30.166  -1.033  25.359  0.00  0.00    +0.018 C 
ATOM      8  C   UNL     1      31.192  -2.077  24.849  0.00  0.00    +0.000 C 
ATOM      9  C   UNL     1      31.440  -2.040  23.303  0.00  0.00    -0.004 C 
ATOM     10  C   UNL     1      32.427  -3.184  22.884  0.00  0.00    +0.006 C 
ATOM     11  C   UNL     1      31.796  -4.609  22.994  0.00  0.00    -0.039 C 
ATOM     12  C   UNL     1      33.723  -3.095  23.745  0.00  0.00    -0.032 C 
ATOM     13  C   UNL     1      33.460  -3.100  25.276  0.00  0.00    +0.006 C 
ATOM     14  C   UNL     1      32.498  -1.948  25.684  0.00  0.00    +0.030 C 
ATOM     15  C   UNL     1      32.206  -1.898  27.202  0.00  0.00    -0.048 A 
ENDROOT
BRANCH  10  16
ATOM     16  C   UNL     1      32.807  -3.046  21.421  0.00  0.00    +0.114 A 
ATOM     17  N   UNL     1      33.958  -2.598  20.991  0.00  0.00    -0.246 N 
ATOM     18  C   UNL     1      33.899  -2.632  19.638  0.00  0.00    +0.109 A 
ATOM     19  C   UNL     1      32.653  -3.128  19.290  0.00  0.00    +0.090 A 
ATOM     20  C   UNL     1      32.242  -3.304  17.972  0.00  0.00    +0.030 A 
ATOM     21  C   UNL     1      33.179  -2.944  16.991  0.00  0.00    -0.002 A 
ATOM     22  C   UNL     1      34.445  -2.436  17.334  0.00  0.00    +0.007 A 
ATOM     23  C   UNL     1      34.836  -2.268  18.671  0.00  0.00    +0.037 A 
ATOM     24  H   UNL     1      34.756  -2.283  21.559  0.00  0.00    +0.235 HD
ATOM     25  N   UNL     1      32.040  -3.357  20.458  0.00  0.00    -0.247 NA
ENDBRANCH  10  16
BRANCH   3  26
ATOM     26  O   UNL     1      31.472  -2.159  31.351  0.00  0.00    -0.339 OA
ATOM     27  H   UNL     1      30.561  -2.067  31.606  0.00  0.00    +0.246 HD
ENDBRANCH   3  26
BRANCH   9  28
ATOM     28  C   UNL     1      31.892  -0.639  22.772  0.00  0.00    +0.179 C 
BRANCH  28  29
ATOM     29  C   UNL     1      32.458   0.200  23.821  0.00  0.00    +0.089 C 
ATOM     30  N   UNL     1      32.906   0.866  24.655  0.00  0.00    -0.304 NA
ENDBRANCH  28  29
ENDBRANCH   9  28
TORSDOF 4
ENDMDL
MODEL 16
REMARK minimizedAffinity 1.93820465
REMARK minimizedRMSD -1
REMARK  Name = 303
REMARK  5 active torsions:
REMARK  status: ('A' for Active; 'I' for Inactive)
REMARK    1  A    between atoms: C_3  and  O_4
REMARK    2  A    between atoms: C_5  and  C_17
REMARK    3  A    between atoms: C_15  and  C_20
REMARK    4  A    between atoms: C_15  and  C_23
REMARK    5  A    between atoms: C_16  and  C_17
REMARK                            x       y       z     vdW  Elec       q    Type
REMARK                         _______ _______ _______ _____ _____    ______ ____
ROOT
ATOM      1  C   UNL     1      32.676  -4.129  20.786  0.00  0.00    -0.024 A 
ATOM      2  C   UNL     1      32.648  -4.583  19.465  0.00  0.00    +0.000 A 
ATOM      3  C   UNL     1      31.573  -4.263  18.634  0.00  0.00    +0.074 A 
ATOM      4  C   UNL     1      30.518  -3.506  19.154  0.00  0.00    +0.008 A 
ATOM      5  C   UNL     1      30.545  -3.054  20.479  0.00  0.00    -0.049 A 
ATOM      6  C   UNL     1      29.310  -2.309  20.998  0.00  0.00    +0.058 C 
ATOM      7  C   UNL     1      29.337  -2.151  22.537  0.00  0.00    +0.018 C 
ATOM      8  C   UNL     1      30.720  -1.591  22.958  0.00  0.00    +0.000 C 
ATOM      9  C   UNL     1      30.767  -1.007  24.411  0.00  0.00    -0.004 C 
ATOM     10  C   UNL     1      32.181  -0.396  24.704  0.00  0.00    +0.006 C 
ATOM     11  C   UNL     1      32.459   0.918  23.906  0.00  0.00    -0.039 C 
ATOM     12  C   UNL     1      33.280  -1.458  24.404  0.00  0.00    -0.032 C 
ATOM     13  C   UNL     1      33.201  -2.054  22.970  0.00  0.00    +0.006 C 
ATOM     14  C   UNL     1      31.803  -2.677  22.697  0.00  0.00    +0.030 C 
ATOM     15  C   UNL     1      31.669  -3.293  21.286  0.00  0.00    -0.048 A 
ENDROOT
BRANCH  10  16
ATOM     16  C   UNL     1      32.288   0.013  26.162  0.00  0.00    +0.114 A 
ATOM     17  N   UNL     1      33.296  -0.277  26.944  0.00  0.00    -0.246 N 
ATOM     18  C   UNL     1      33.010   0.263  28.153  0.00  0.00    +0.109 A 
ATOM     19  C   UNL     1      31.781   0.894  28.044  0.00  0.00    +0.090 A 
ATOM     20  C   UNL     1      31.171   1.565  29.099  0.00  0.00    +0.030 A 
ATOM     21  C   UNL     1      31.884   1.569  30.308  0.00  0.00    -0.002 A 
ATOM     22  C   UNL     1      33.130   0.929  30.429  0.00  0.00    +0.007 A 
ATOM     23  C   UNL     1      33.724   0.259  29.350  0.00  0.00    +0.037 A 
ATOM     24  H   UNL     1      34.142  -0.809  26.698  0.00  0.00    +0.235 HD
ATOM     25  N   UNL     1      31.404   0.688  26.775  0.00  0.00    -0.247 NA
ENDBRANCH  10  16
BRANCH   3  26
ATOM     26  O   UNL     1      31.575  -4.707  17.309  0.00  0.00    -0.339 OA
ATOM     27  H   UNL     1      30.793  -4.481  16.818  0.00  0.00    +0.246 HD
ENDBRANCH   3  26
BRANCH   9  28
ATOM     28  C   UNL     1      30.316  -2.023  25.512  0.00  0.00    +0.179 C 
BRANCH  28  29
ATOM     29  C   UNL     1      29.030  -1.672  26.103  0.00  0.00    +0.089 C 
ATOM     30  N   UNL     1      28.011  -1.391  26.574  0.00  0.00    -0.304 NA
ENDBRANCH  28  29
ENDBRANCH   9  28
TORSDOF 4
ENDMDL
MODEL 17
REMARK minimizedAffinity 5.59729052
REMARK minimizedRMSD -1
REMARK  Name = 303
REMARK  5 active torsions:
REMARK  status: ('A' for Active; 'I' for Inactive)
REMARK    1  A    between atoms: C_3  and  O_4
REMARK    2  A    between atoms: C_5  and  C_17
REMARK    3  A    between atoms: C_15  and  C_20
REMARK    4  A    between atoms: C_15  and  C_23
REMARK    5  A    between atoms: C_16  and  C_17
REMARK                            x       y       z     vdW  Elec       q    Type
REMARK                         _______ _______ _______ _____ _____    ______ ____
ROOT
ATOM      1  C   UNL     1      36.454   3.440  16.200  0.00  0.00    -0.024 A 
ATOM      2  C   UNL     1      37.277   4.317  15.489  0.00  0.00    +0.000 A 
ATOM      3  C   UNL     1      38.528   3.896  15.037  0.00  0.00    +0.074 A 
ATOM      4  C   UNL     1      38.951   2.595  15.329  0.00  0.00    +0.008 A 
ATOM      5  C   UNL     1      38.127   1.717  16.045  0.00  0.00    -0.049 A 
ATOM      6  C   UNL     1      38.701   0.341  16.403  0.00  0.00    +0.058 C 
ATOM      7  C   UNL     1      37.827  -0.392  17.448  0.00  0.00    +0.018 C 
ATOM      8  C   UNL     1      36.349  -0.350  16.983  0.00  0.00    +0.000 C 
ATOM      9  C   UNL     1      35.412  -1.373  17.710  0.00  0.00    -0.004 C 
ATOM     10  C   UNL     1      33.965  -1.305  17.110  0.00  0.00    +0.006 C 
ATOM     11  C   UNL     1      33.874  -1.881  15.660  0.00  0.00    -0.039 C 
ATOM     12  C   UNL     1      33.456   0.167  17.144  0.00  0.00    -0.032 C 
ATOM     13  C   UNL     1      34.411   1.177  16.448  0.00  0.00    +0.006 C 
ATOM     14  C   UNL     1      35.837   1.117  17.065  0.00  0.00    +0.030 C 
ATOM     15  C   UNL     1      36.831   2.108  16.416  0.00  0.00    -0.048 A 
ENDROOT
BRANCH  10  16
ATOM     16  C   UNL     1      33.014  -2.165  17.923  0.00  0.00    +0.114 A 
ATOM     17  N   UNL     1      33.346  -3.280  18.521  0.00  0.00    -0.246 N 
ATOM     18  C   UNL     1      32.225  -3.734  19.132  0.00  0.00    +0.109 A 
ATOM     19  C   UNL     1      31.213  -2.825  18.868  0.00  0.00    +0.090 A 
ATOM     20  C   UNL     1      29.914  -2.971  19.345  0.00  0.00    +0.030 A 
ATOM     21  C   UNL     1      29.678  -4.113  20.125  0.00  0.00    -0.002 A 
ATOM     22  C   UNL     1      30.698  -5.042  20.395  0.00  0.00    +0.007 A 
ATOM     23  C   UNL     1      32.001  -4.874  19.903  0.00  0.00    +0.037 A 
ATOM     24  H   UNL     1      34.272  -3.730  18.531  0.00  0.00    +0.235 HD
ATOM     25  N   UNL     1      31.790  -1.884  18.111  0.00  0.00    -0.247 NA
ENDBRANCH  10  16
BRANCH   3  26
ATOM     26  O   UNL     1      39.327   4.781  14.307  0.00  0.00    -0.339 OA
ATOM     27  H   UNL     1      40.178   4.434  14.067  0.00  0.00    +0.246 HD
ENDBRANCH   3  26
BRANCH   9  28
ATOM     28  C   UNL     1      35.418  -1.235  19.268  0.00  0.00    +0.179 C 
BRANCH  28  29
ATOM     29  C   UNL     1      36.649  -1.737  19.869  0.00  0.00    +0.089 C 
ATOM     30  N   UNL     1      37.626  -2.134  20.346  0.00  0.00    -0.304 NA
ENDBRANCH  28  29
ENDBRANCH   9  28
TORSDOF 4
ENDMDL
MODEL 18
REMARK minimizedAffinity 7.93831301
REMARK minimizedRMSD -1
REMARK  Name = 303
REMARK  5 active torsions:
REMARK  status: ('A' for Active; 'I' for Inactive)
REMARK    1  A    between atoms: C_3  and  O_4
REMARK    2  A    between atoms: C_5  and  C_17
REMARK    3  A    between atoms: C_15  and  C_20
REMARK    4  A    between atoms: C_15  and  C_23
REMARK    5  A    between atoms: C_16  and  C_17
REMARK                            x       y       z     vdW  Elec       q    Type
REMARK                         _______ _______ _______ _____ _____    ______ ____
ROOT
ATOM      1  C   UNL     1      36.012   5.277  16.936  0.00  0.00    -0.024 A 
ATOM      2  C   UNL     1      36.129   6.483  16.241  0.00  0.00    +0.000 A 
ATOM      3  C   UNL     1      36.625   6.498  14.937  0.00  0.00    +0.074 A 
ATOM      4  C   UNL     1      37.026   5.293  14.352  0.00  0.00    +0.008 A 
ATOM      5  C   UNL     1      36.912   4.084  15.050  0.00  0.00    -0.049 A 
ATOM      6  C   UNL     1      37.458   2.822  14.373  0.00  0.00    +0.058 C 
ATOM      7  C   UNL     1      37.559   1.636  15.362  0.00  0.00    +0.018 C 
ATOM      8  C   UNL     1      36.213   1.498  16.118  0.00  0.00    +0.000 C 
ATOM      9  C   UNL     1      36.019   0.127  16.849  0.00  0.00    -0.004 C 
ATOM     10  C   UNL     1      34.598   0.061  17.510  0.00  0.00    +0.006 C 
ATOM     11  C   UNL     1      33.441  -0.055  16.466  0.00  0.00    -0.039 C 
ATOM     12  C   UNL     1      34.388   1.308  18.419  0.00  0.00    -0.032 C 
ATOM     13  C   UNL     1      34.617   2.661  17.690  0.00  0.00    +0.006 C 
ATOM     14  C   UNL     1      36.036   2.725  17.058  0.00  0.00    +0.030 C 
ATOM     15  C   UNL     1      36.323   4.056  16.324  0.00  0.00    -0.048 A 
ENDROOT
BRANCH  10  16
ATOM     16  C   UNL     1      34.469  -1.188  18.363  0.00  0.00    +0.114 A 
ATOM     17  N   UNL     1      35.244  -1.481  19.375  0.00  0.00    -0.246 N 
ATOM     18  C   UNL     1      34.804  -2.665  19.864  0.00  0.00    +0.109 A 
ATOM     19  C   UNL     1      33.722  -3.055  19.091  0.00  0.00    +0.090 A 
ATOM     20  C   UNL     1      33.012  -4.231  19.311  0.00  0.00    +0.030 A 
ATOM     21  C   UNL     1      33.460  -5.019  20.382  0.00  0.00    -0.002 A 
ATOM     22  C   UNL     1      34.558  -4.633  21.170  0.00  0.00    +0.007 A 
ATOM     23  C   UNL     1      35.258  -3.442  20.929  0.00  0.00    +0.037 A 
ATOM     24  H   UNL     1      36.034  -0.927  19.735  0.00  0.00    +0.235 HD
ATOM     25  N   UNL     1      33.584  -2.081  18.183  0.00  0.00    -0.247 NA
ENDBRANCH  10  16
BRANCH   3  26
ATOM     26  O   UNL     1      36.713   7.713  14.251  0.00  0.00    -0.339 OA
ATOM     27  H   UNL     1      37.094   7.647  13.384  0.00  0.00    +0.246 HD
ENDBRANCH   3  26
BRANCH   9  28
ATOM     28  C   UNL     1      37.163  -0.215  17.860  0.00  0.00    +0.179 C 
BRANCH  28  29
ATOM     29  C   UNL     1      38.486   0.102  17.335  0.00  0.00    +0.089 C 
ATOM     30  N   UNL     1      39.536   0.355  16.920  0.00  0.00    -0.304 NA
ENDBRANCH  28  29
ENDBRANCH   9  28
TORSDOF 4
ENDMDL
