MODEL 1
REMARK minimizedAffinity -8.40267372
REMARK minimizedRMSD -1
REMARK  Name = 301
REMARK  5 active torsions:
REMARK  status: ('A' for Active; 'I' for Inactive)
REMARK    1  A    between atoms: C_3  and  O_4
REMARK    2  A    between atoms: C_5  and  C_17
REMARK    3  A    between atoms: C_15  and  C_20
REMARK    4  A    between atoms: C_15  and  C_23
REMARK    5  A    between atoms: C_16  and  C_17
REMARK                            x       y       z     vdW  Elec       q    Type
REMARK                         _______ _______ _______ _____ _____    ______ ____
ROOT
ATOM      1  C   UNL     1      27.716  -1.749  27.684  0.00  0.00    -0.024 A 
ATOM      2  C   UNL     1      26.345  -1.708  27.422  0.00  0.00    +0.000 A 
ATOM      3  C   UNL     1      25.709  -0.489  27.188  0.00  0.00    +0.074 A 
ATOM      4  C   UNL     1      26.459   0.690  27.260  0.00  0.00    +0.008 A 
ATOM      5  C   UNL     1      27.832   0.650  27.532  0.00  0.00    -0.049 A 
ATOM      6  C   UNL     1      28.561   1.989  27.696  0.00  0.00    +0.058 C 
ATOM      7  C   UNL     1      29.978   1.800  28.288  0.00  0.00    +0.018 C 
ATOM      8  C   UNL     1      30.711   0.695  27.487  0.00  0.00    +0.003 C 
ATOM      9  C   UNL     1      32.263   0.667  27.689  0.00  0.00    +0.012 C 
ATOM     10  C   UNL     1      32.915  -0.422  26.767  0.00  0.00    +0.024 C 
ATOM     11  C   UNL     1      32.867  -0.054  25.248  0.00  0.00    -0.014 C 
ATOM     12  C   UNL     1      32.205  -1.791  27.009  0.00  0.00    -0.011 C 
ATOM     13  C   UNL     1      30.660  -1.742  26.843  0.00  0.00    +0.010 C 
ATOM     14  C   UNL     1      30.030  -0.672  27.778  0.00  0.00    +0.030 C 
ATOM     15  C   UNL     1      28.493  -0.582  27.656  0.00  0.00    -0.048 A 
ENDROOT
BRANCH  10  16
ATOM     16  C   UNL     1      34.396  -0.570  27.089  0.00  0.00    +0.109 C 
ATOM     17  N   UNL     1      35.277   0.325  26.777  0.00  0.00    -0.296 N 
ATOM     18  H   UNL     1      35.070   1.208  26.287  0.00  0.00    +0.187 HD
ATOM     19  C   UNL     1      36.605  -0.056  27.202  0.00  0.00    +0.156 C 
ATOM     20  C   UNL     1      36.261  -1.430  27.858  0.00  0.00    +0.150 C 
ATOM     21  N   UNL     1      34.831  -1.596  27.693  0.00  0.00    -0.273 NA
ENDBRANCH  10  16
BRANCH   3  22
ATOM     22  O   UNL     1      24.342  -0.473  26.894  0.00  0.00    -0.339 OA
ATOM     23  H   UNL     1      23.986   0.393  26.732  0.00  0.00    +0.246 HD
ENDBRANCH   3  22
BRANCH   9  24
ATOM     24  C   UNL     1      32.704   0.521  29.182  0.00  0.00    +0.183 C 
BRANCH  24  25
ATOM     25  C   UNL     1      33.902   1.292  29.489  0.00  0.00    +0.089 C 
ATOM     26  N   UNL     1      34.856   1.903  29.732  0.00  0.00    -0.304 NA
ENDBRANCH  24  25
ENDBRANCH   9  24
TORSDOF 4
ENDMDL
MODEL 2
REMARK minimizedAffinity -8.10172653
REMARK minimizedRMSD -1
REMARK  Name = 301
REMARK  5 active torsions:
REMARK  status: ('A' for Active; 'I' for Inactive)
REMARK    1  A    between atoms: C_3  and  O_4
REMARK    2  A    between atoms: C_5  and  C_17
REMARK    3  A    between atoms: C_15  and  C_20
REMARK    4  A    between atoms: C_15  and  C_23
REMARK    5  A    between atoms: C_16  and  C_17
REMARK                            x       y       z     vdW  Elec       q    Type
REMARK                         _______ _______ _______ _____ _____    ______ ____
ROOT
ATOM      1  C   UNL     1      27.599   0.367  26.671  0.00  0.00    -0.024 A 
ATOM      2  C   UNL     1      26.223   0.338  26.910  0.00  0.00    +0.000 A 
ATOM      3  C   UNL     1      25.632  -0.789  27.481  0.00  0.00    +0.074 A 
ATOM      4  C   UNL     1      26.431  -1.900  27.769  0.00  0.00    +0.008 A 
ATOM      5  C   UNL     1      27.808  -1.875  27.519  0.00  0.00    -0.049 A 
ATOM      6  C   UNL     1      28.597  -3.167  27.766  0.00  0.00    +0.058 C 
ATOM      7  C   UNL     1      30.022  -3.091  27.167  0.00  0.00    +0.018 C 
ATOM      8  C   UNL     1      30.684  -1.767  27.623  0.00  0.00    +0.003 C 
ATOM      9  C   UNL     1      32.240  -1.723  27.446  0.00  0.00    +0.012 C 
ATOM     10  C   UNL     1      32.819  -0.383  28.019  0.00  0.00    +0.024 C 
ATOM     11  C   UNL     1      32.740  -0.294  29.578  0.00  0.00    -0.014 C 
ATOM     12  C   UNL     1      32.060   0.820  27.376  0.00  0.00    -0.011 C 
ATOM     13  C   UNL     1      30.514   0.747  27.524  0.00  0.00    +0.010 C 
ATOM     14  C   UNL     1      29.957  -0.578  26.933  0.00  0.00    +0.030 C 
ATOM     15  C   UNL     1      28.421  -0.703  27.051  0.00  0.00    -0.048 A 
ENDROOT
BRANCH  10  16
ATOM     16  C   UNL     1      34.301  -0.264  27.693  0.00  0.00    +0.109 C 
ATOM     17  N   UNL     1      35.155  -1.203  27.946  0.00  0.00    -0.296 N 
ATOM     18  H   UNL     1      34.924  -2.105  28.387  0.00  0.00    +0.187 HD
ATOM     19  C   UNL     1      36.492  -0.841  27.530  0.00  0.00    +0.156 C 
ATOM     20  C   UNL     1      36.187   0.578  26.955  0.00  0.00    +0.150 C 
ATOM     21  N   UNL     1      34.764   0.780  27.142  0.00  0.00    -0.273 NA
ENDBRANCH  10  16
BRANCH   3  22
ATOM     22  O   UNL     1      24.258  -0.784  27.744  0.00  0.00    -0.339 OA
ATOM     23  H   UNL     1      23.933  -1.581  28.147  0.00  0.00    +0.246 HD
ENDBRANCH   3  22
BRANCH   9  24
ATOM     24  C   UNL     1      32.718  -1.999  25.983  0.00  0.00    +0.183 C 
BRANCH  24  25
ATOM     25  C   UNL     1      32.821  -3.422  25.687  0.00  0.00    +0.089 C 
ATOM     26  N   UNL     1      32.901  -4.553  25.453  0.00  0.00    -0.304 NA
ENDBRANCH  24  25
ENDBRANCH   9  24
TORSDOF 4
ENDMDL
MODEL 3
REMARK minimizedAffinity -5.93521261
REMARK minimizedRMSD -1
REMARK  Name = 301
REMARK  5 active torsions:
REMARK  status: ('A' for Active; 'I' for Inactive)
REMARK    1  A    between atoms: C_3  and  O_4
REMARK    2  A    between atoms: C_5  and  C_17
REMARK    3  A    between atoms: C_15  and  C_20
REMARK    4  A    between atoms: C_15  and  C_23
REMARK    5  A    between atoms: C_16  and  C_17
REMARK                            x       y       z     vdW  Elec       q    Type
REMARK                         _______ _______ _______ _____ _____    ______ ____
ROOT
ATOM      1  C   UNL     1      31.806  -2.188  22.277  0.00  0.00    -0.024 A 
ATOM      2  C   UNL     1      31.825  -3.121  21.238  0.00  0.00    +0.000 A 
ATOM      3  C   UNL     1      32.276  -4.422  21.469  0.00  0.00    +0.074 A 
ATOM      4  C   UNL     1      32.746  -4.760  22.742  0.00  0.00    +0.008 A 
ATOM      5  C   UNL     1      32.737  -3.820  23.780  0.00  0.00    -0.049 A 
ATOM      6  C   UNL     1      33.363  -4.236  25.117  0.00  0.00    +0.058 C 
ATOM      7  C   UNL     1      33.561  -3.024  26.059  0.00  0.00    +0.018 C 
ATOM      8  C   UNL     1      32.237  -2.222  26.123  0.00  0.00    +0.003 C 
ATOM      9  C   UNL     1      32.142  -1.219  27.323  0.00  0.00    +0.012 C 
ATOM     10  C   UNL     1      30.734  -0.529  27.349  0.00  0.00    +0.024 C 
ATOM     11  C   UNL     1      29.577  -1.503  27.744  0.00  0.00    -0.014 C 
ATOM     12  C   UNL     1      30.447   0.104  25.951  0.00  0.00    -0.011 C 
ATOM     13  C   UNL     1      30.582  -0.891  24.764  0.00  0.00    +0.010 C 
ATOM     14  C   UNL     1      31.989  -1.550  24.743  0.00  0.00    +0.030 C 
ATOM     15  C   UNL     1      32.179  -2.548  23.580  0.00  0.00    -0.048 A 
ENDROOT
BRANCH  10  16
ATOM     16  C   UNL     1      30.702   0.568  28.405  0.00  0.00    +0.109 C 
ATOM     17  N   UNL     1      31.056   0.372  29.634  0.00  0.00    -0.296 N 
ATOM     18  H   UNL     1      31.387  -0.527  30.015  0.00  0.00    +0.187 HD
ATOM     19  C   UNL     1      30.940   1.577  30.425  0.00  0.00    +0.156 C 
ATOM     20  C   UNL     1      30.419   2.543  29.315  0.00  0.00    +0.150 C 
ATOM     21  N   UNL     1      30.324   1.742  28.111  0.00  0.00    -0.273 NA
ENDBRANCH  10  16
BRANCH   3  22
ATOM     22  O   UNL     1      32.253  -5.350  20.424  0.00  0.00    -0.339 OA
ATOM     23  H   UNL     1      32.562  -6.217  20.663  0.00  0.00    +0.246 HD
ENDBRANCH   3  22
BRANCH   9  24
ATOM     24  C   UNL     1      33.312  -0.183  27.375  0.00  0.00    +0.183 C 
BRANCH  24  25
ATOM     25  C   UNL     1      34.298  -0.504  28.400  0.00  0.00    +0.089 C 
ATOM     26  N   UNL     1      35.082  -0.758  29.213  0.00  0.00    -0.304 NA
ENDBRANCH  24  25
ENDBRANCH   9  24
TORSDOF 4
ENDMDL
MODEL 4
REMARK minimizedAffinity -5.81014729
REMARK minimizedRMSD -1
REMARK  Name = 301
REMARK  5 active torsions:
REMARK  status: ('A' for Active; 'I' for Inactive)
REMARK    1  A    between atoms: C_3  and  O_4
REMARK    2  A    between atoms: C_5  and  C_17
REMARK    3  A    between atoms: C_15  and  C_20
REMARK    4  A    between atoms: C_15  and  C_23
REMARK    5  A    between atoms: C_16  and  C_17
REMARK                            x       y       z     vdW  Elec       q    Type
REMARK                         _______ _______ _______ _____ _____    ______ ____
ROOT
ATOM      1  C   UNL     1      32.145  -3.519  17.818  0.00  0.00    -0.024 A 
ATOM      2  C   UNL     1      30.918  -3.990  18.288  0.00  0.00    +0.000 A 
ATOM      3  C   UNL     1      30.560  -3.809  19.625  0.00  0.00    +0.074 A 
ATOM      4  C   UNL     1      31.466  -3.187  20.490  0.00  0.00    +0.008 A 
ATOM      5  C   UNL     1      32.701  -2.724  20.021  0.00  0.00    -0.049 A 
ATOM      6  C   UNL     1      33.679  -2.147  21.051  0.00  0.00    +0.058 C 
ATOM      7  C   UNL     1      35.096  -1.963  20.456  0.00  0.00    +0.018 C 
ATOM      8  C   UNL     1      34.976  -1.213  19.105  0.00  0.00    +0.003 C 
ATOM      9  C   UNL     1      36.317  -0.599  18.581  0.00  0.00    +0.012 C 
ATOM     10  C   UNL     1      36.069   0.213  17.262  0.00  0.00    +0.024 C 
ATOM     11  C   UNL     1      35.262   1.532  17.493  0.00  0.00    -0.014 C 
ATOM     12  C   UNL     1      35.327  -0.696  16.233  0.00  0.00    -0.011 C 
ATOM     13  C   UNL     1      34.016  -1.331  16.777  0.00  0.00    +0.010 C 
ATOM     14  C   UNL     1      34.285  -2.147  18.071  0.00  0.00    +0.030 C 
ATOM     15  C   UNL     1      33.014  -2.804  18.655  0.00  0.00    -0.048 A 
ENDROOT
BRANCH  10  16
ATOM     16  C   UNL     1      37.393   0.663  16.660  0.00  0.00    +0.109 C 
ATOM     17  N   UNL     1      38.535   0.184  17.035  0.00  0.00    -0.296 N 
ATOM     18  H   UNL     1      38.662  -0.533  17.765  0.00  0.00    +0.187 HD
ATOM     19  C   UNL     1      39.633   0.772  16.300  0.00  0.00    +0.156 C 
ATOM     20  C   UNL     1      38.816   1.734  15.381  0.00  0.00    +0.150 C 
ATOM     21  N   UNL     1      37.427   1.538  15.744  0.00  0.00    -0.273 NA
ENDBRANCH  10  16
BRANCH   3  22
ATOM     22  O   UNL     1      29.311  -4.257  20.067  0.00  0.00    -0.339 OA
ATOM     23  H   UNL     1      29.135  -4.084  20.985  0.00  0.00    +0.246 HD
ENDBRANCH   3  22
BRANCH   9  24
ATOM     24  C   UNL     1      37.473  -1.641  18.428  0.00  0.00    +0.183 C 
BRANCH  24  25
ATOM     25  C   UNL     1      38.196  -1.862  19.674  0.00  0.00    +0.089 C 
ATOM     26  N   UNL     1      38.769  -2.039  20.664  0.00  0.00    -0.304 NA
ENDBRANCH  24  25
ENDBRANCH   9  24
TORSDOF 4
ENDMDL
MODEL 5
REMARK minimizedAffinity -5.68767643
REMARK minimizedRMSD -1
REMARK  Name = 301
REMARK  5 active torsions:
REMARK  status: ('A' for Active; 'I' for Inactive)
REMARK    1  A    between atoms: C_3  and  O_4
REMARK    2  A    between atoms: C_5  and  C_17
REMARK    3  A    between atoms: C_15  and  C_20
REMARK    4  A    between atoms: C_15  and  C_23
REMARK    5  A    between atoms: C_16  and  C_17
REMARK                            x       y       z     vdW  Elec       q    Type
REMARK                         _______ _______ _______ _____ _____    ______ ____
ROOT
ATOM      1  C   UNL     1      28.838   0.387  26.112  0.00  0.00    -0.024 A 
ATOM      2  C   UNL     1      27.468   0.636  26.220  0.00  0.00    +0.000 A 
ATOM      3  C   UNL     1      26.650  -0.232  26.944  0.00  0.00    +0.074 A 
ATOM      4  C   UNL     1      27.217  -1.372  27.523  0.00  0.00    +0.008 A 
ATOM      5  C   UNL     1      28.589  -1.627  27.406  0.00  0.00    -0.049 A 
ATOM      6  C   UNL     1      29.116  -2.948  27.980  0.00  0.00    +0.058 C 
ATOM      7  C   UNL     1      30.564  -3.236  27.518  0.00  0.00    +0.018 C 
ATOM      8  C   UNL     1      31.426  -1.972  27.762  0.00  0.00    +0.003 C 
ATOM      9  C   UNL     1      32.972  -2.223  27.730  0.00  0.00    +0.012 C 
ATOM     10  C   UNL     1      33.747  -0.905  28.078  0.00  0.00    +0.024 C 
ATOM     11  C   UNL     1      33.593  -0.475  29.573  0.00  0.00    -0.014 C 
ATOM     12  C   UNL     1      33.258   0.242  27.138  0.00  0.00    -0.011 C 
ATOM     13  C   UNL     1      31.718   0.457  27.149  0.00  0.00    +0.010 C 
ATOM     14  C   UNL     1      30.967  -0.854  26.783  0.00  0.00    +0.030 C 
ATOM     15  C   UNL     1      29.430  -0.697  26.776  0.00  0.00    -0.048 A 
ENDROOT
BRANCH  10  16
ATOM     16  C   UNL     1      35.244  -1.103  27.878  0.00  0.00    +0.109 C 
ATOM     17  N   UNL     1      36.036  -1.487  28.826  0.00  0.00    -0.296 N 
ATOM     18  H   UNL     1      35.741  -1.691  29.793  0.00  0.00    +0.187 HD
ATOM     19  C   UNL     1      37.403  -1.605  28.371  0.00  0.00    +0.156 C 
ATOM     20  C   UNL     1      37.196  -1.184  26.882  0.00  0.00    +0.150 C 
ATOM     21  N   UNL     1      35.781  -0.900  26.748  0.00  0.00    -0.273 NA
ENDBRANCH  10  16
BRANCH   3  22
ATOM     22  O   UNL     1      25.287   0.054  27.068  0.00  0.00    -0.339 OA
ATOM     23  H   UNL     1      24.800  -0.575  27.588  0.00  0.00    +0.246 HD
ENDBRANCH   3  22
BRANCH   9  24
ATOM     24  C   UNL     1      33.479  -2.878  26.404  0.00  0.00    +0.183 C 
BRANCH  24  25
ATOM     25  C   UNL     1      32.751  -2.405  25.233  0.00  0.00    +0.089 C 
ATOM     26  N   UNL     1      32.171  -2.031  24.303  0.00  0.00    -0.304 NA
ENDBRANCH  24  25
ENDBRANCH   9  24
TORSDOF 4
ENDMDL
MODEL 6
REMARK minimizedAffinity -5.62929726
REMARK minimizedRMSD -1
REMARK  Name = 301
REMARK  5 active torsions:
REMARK  status: ('A' for Active; 'I' for Inactive)
REMARK    1  A    between atoms: C_3  and  O_4
REMARK    2  A    between atoms: C_5  and  C_17
REMARK    3  A    between atoms: C_15  and  C_20
REMARK    4  A    between atoms: C_15  and  C_23
REMARK    5  A    between atoms: C_16  and  C_17
REMARK                            x       y       z     vdW  Elec       q    Type
REMARK                         _______ _______ _______ _____ _____    ______ ____
ROOT
ATOM      1  C   UNL     1      34.725   0.116  27.882  0.00  0.00    -0.024 A 
ATOM      2  C   UNL     1      36.110   0.086  27.705  0.00  0.00    +0.000 A 
ATOM      3  C   UNL     1      36.713  -0.983  27.042  0.00  0.00    +0.074 A 
ATOM      4  C   UNL     1      35.913  -2.040  26.595  0.00  0.00    +0.008 A 
ATOM      5  C   UNL     1      34.525  -2.016  26.782  0.00  0.00    -0.049 A 
ATOM      6  C   UNL     1      33.731  -3.257  26.358  0.00  0.00    +0.058 C 
ATOM      7  C   UNL     1      32.280  -3.220  26.894  0.00  0.00    +0.018 C 
ATOM      8  C   UNL     1      31.659  -1.841  26.557  0.00  0.00    +0.003 C 
ATOM      9  C   UNL     1      30.098  -1.787  26.665  0.00  0.00    +0.012 C 
ATOM     10  C   UNL     1      29.567  -0.381  26.217  0.00  0.00    +0.024 C 
ATOM     11  C   UNL     1      29.722  -0.123  24.683  0.00  0.00    -0.014 C 
ATOM     12  C   UNL     1      30.310   0.730  27.024  0.00  0.00    -0.011 C 
ATOM     13  C   UNL     1      31.861   0.643  26.941  0.00  0.00    +0.010 C 
ATOM     14  C   UNL     1      32.370  -0.749  27.408  0.00  0.00    +0.030 C 
ATOM     15  C   UNL     1      33.907  -0.890  27.348  0.00  0.00    -0.048 A 
ENDROOT
BRANCH  10  16
ATOM     16  C   UNL     1      28.072  -0.269  26.486  0.00  0.00    +0.109 C 
ATOM     17  N   UNL     1      27.201  -1.068  25.959  0.00  0.00    -0.296 N 
ATOM     18  H   UNL     1      27.425  -1.842  25.316  0.00  0.00    +0.187 HD
ATOM     19  C   UNL     1      25.855  -0.752  26.383  0.00  0.00    +0.156 C 
ATOM     20  C   UNL     1      26.176   0.460  27.313  0.00  0.00    +0.150 C 
ATOM     21  N   UNL     1      27.615   0.626  27.258  0.00  0.00    -0.273 NA
ENDBRANCH  10  16
BRANCH   3  22
ATOM     22  O   UNL     1      38.097  -0.976  26.845  0.00  0.00    -0.339 OA
ATOM     23  H   UNL     1      38.430  -1.730  26.372  0.00  0.00    +0.246 HD
ENDBRANCH   3  22
BRANCH   9  24
ATOM     24  C   UNL     1      29.545  -2.212  28.065  0.00  0.00    +0.183 C 
BRANCH  24  25
ATOM     25  C   UNL     1      28.640  -3.350  27.986  0.00  0.00    +0.089 C 
ATOM     26  N   UNL     1      27.920  -4.256  27.926  0.00  0.00    -0.304 NA
ENDBRANCH  24  25
ENDBRANCH   9  24
TORSDOF 4
ENDMDL
MODEL 7
REMARK minimizedAffinity -5.44148207
REMARK minimizedRMSD -1
REMARK  Name = 301
REMARK  5 active torsions:
REMARK  status: ('A' for Active; 'I' for Inactive)
REMARK    1  A    between atoms: C_3  and  O_4
REMARK    2  A    between atoms: C_5  and  C_17
REMARK    3  A    between atoms: C_15  and  C_20
REMARK    4  A    between atoms: C_15  and  C_23
REMARK    5  A    between atoms: C_16  and  C_17
REMARK                            x       y       z     vdW  Elec       q    Type
REMARK                         _______ _______ _______ _____ _____    ______ ____
ROOT
ATOM      1  C   UNL     1      34.807  -1.440  26.312  0.00  0.00    -0.024 A 
ATOM      2  C   UNL     1      36.155  -1.714  26.551  0.00  0.00    +0.000 A 
ATOM      3  C   UNL     1      36.731  -1.398  27.782  0.00  0.00    +0.074 A 
ATOM      4  C   UNL     1      35.948  -0.765  28.753  0.00  0.00    +0.008 A 
ATOM      5  C   UNL     1      34.598  -0.480  28.510  0.00  0.00    -0.049 A 
ATOM      6  C   UNL     1      33.835   0.306  29.583  0.00  0.00    +0.058 C 
ATOM      7  C   UNL     1      32.469   0.810  29.060  0.00  0.00    +0.018 C 
ATOM      8  C   UNL     1      31.723  -0.372  28.393  0.00  0.00    +0.003 C 
ATOM      9  C   UNL     1      30.189  -0.137  28.181  0.00  0.00    +0.012 C 
ATOM     10  C   UNL     1      29.515  -1.422  27.587  0.00  0.00    +0.024 C 
ATOM     11  C   UNL     1      29.448  -2.609  28.603  0.00  0.00    -0.014 C 
ATOM     12  C   UNL     1      30.287  -1.860  26.303  0.00  0.00    -0.011 C 
ATOM     13  C   UNL     1      31.815  -2.054  26.517  0.00  0.00    +0.010 C 
ATOM     14  C   UNL     1      32.469  -0.764  27.086  0.00  0.00    +0.030 C 
ATOM     15  C   UNL     1      33.990  -0.900  27.317  0.00  0.00    -0.048 A 
ENDROOT
BRANCH  10  16
ATOM     16  C   UNL     1      28.065  -1.138  27.219  0.00  0.00    +0.109 C 
ATOM     17  N   UNL     1      27.123  -1.034  28.100  0.00  0.00    -0.296 N 
ATOM     18  H   UNL     1      27.255  -1.134  29.117  0.00  0.00    +0.187 HD
ATOM     19  C   UNL     1      25.843  -0.753  27.488  0.00  0.00    +0.156 C 
ATOM     20  C   UNL     1      26.295  -0.717  25.994  0.00  0.00    +0.150 C 
ATOM     21  N   UNL     1      27.720  -0.983  26.009  0.00  0.00    -0.273 NA
ENDBRANCH  10  16
BRANCH   3  22
ATOM     22  O   UNL     1      38.074  -1.712  28.012  0.00  0.00    -0.339 OA
ATOM     23  H   UNL     1      38.388  -1.479  28.879  0.00  0.00    +0.246 HD
ENDBRANCH   3  22
BRANCH   9  24
ATOM     24  C   UNL     1      29.855   1.146  27.350  0.00  0.00    +0.183 C 
BRANCH  24  25
ATOM     25  C   UNL     1      28.946   2.044  28.051  0.00  0.00    +0.089 C 
ATOM     26  N   UNL     1      28.224   2.759  28.606  0.00  0.00    -0.304 NA
ENDBRANCH  24  25
ENDBRANCH   9  24
TORSDOF 4
ENDMDL
MODEL 8
REMARK minimizedAffinity -5.16017056
REMARK minimizedRMSD -1
REMARK  Name = 301
REMARK  5 active torsions:
REMARK  status: ('A' for Active; 'I' for Inactive)
REMARK    1  A    between atoms: C_3  and  O_4
REMARK    2  A    between atoms: C_5  and  C_17
REMARK    3  A    between atoms: C_15  and  C_20
REMARK    4  A    between atoms: C_15  and  C_23
REMARK    5  A    between atoms: C_16  and  C_17
REMARK                            x       y       z     vdW  Elec       q    Type
REMARK                         _______ _______ _______ _____ _____    ______ ____
ROOT
ATOM      1  C   UNL     1      32.657  -1.816  22.700  0.00  0.00    -0.024 A 
ATOM      2  C   UNL     1      32.315  -2.287  23.969  0.00  0.00    +0.000 A 
ATOM      3  C   UNL     1      32.319  -3.657  24.236  0.00  0.00    +0.074 A 
ATOM      4  C   UNL     1      32.630  -4.547  23.203  0.00  0.00    +0.008 A 
ATOM      5  C   UNL     1      32.963  -4.075  21.928  0.00  0.00    -0.049 A 
ATOM      6  C   UNL     1      33.191  -5.115  20.824  0.00  0.00    +0.058 C 
ATOM      7  C   UNL     1      33.246  -4.461  19.423  0.00  0.00    +0.018 C 
ATOM      8  C   UNL     1      34.226  -3.262  19.470  0.00  0.00    +0.003 C 
ATOM      9  C   UNL     1      34.699  -2.753  18.067  0.00  0.00    +0.012 C 
ATOM     10  C   UNL     1      35.754  -1.604  18.228  0.00  0.00    +0.024 C 
ATOM     11  C   UNL     1      37.126  -2.100  18.791  0.00  0.00    -0.014 C 
ATOM     12  C   UNL     1      35.166  -0.494  19.155  0.00  0.00    -0.011 C 
ATOM     13  C   UNL     1      34.664  -1.016  20.531  0.00  0.00    +0.010 C 
ATOM     14  C   UNL     1      33.606  -2.140  20.351  0.00  0.00    +0.030 C 
ATOM     15  C   UNL     1      33.070  -2.696  21.689  0.00  0.00    -0.048 A 
ENDROOT
BRANCH  10  16
ATOM     16  C   UNL     1      36.083  -0.992  16.873  0.00  0.00    +0.109 C 
ATOM     17  N   UNL     1      36.603  -1.672  15.902  0.00  0.00    -0.296 N 
ATOM     18  H   UNL     1      36.844  -2.673  15.948  0.00  0.00    +0.187 HD
ATOM     19  C   UNL     1      36.807  -0.858  14.725  0.00  0.00    +0.156 C 
ATOM     20  C   UNL     1      36.258   0.497  15.273  0.00  0.00    +0.150 C 
ATOM     21  N   UNL     1      35.849   0.231  16.638  0.00  0.00    -0.273 NA
ENDBRANCH  10  16
BRANCH   3  22
ATOM     22  O   UNL     1      32.006  -4.105  25.523  0.00  0.00    -0.339 OA
ATOM     23  H   UNL     1      32.046  -5.049  25.630  0.00  0.00    +0.246 HD
ENDBRANCH   3  22
BRANCH   9  24
ATOM     24  C   UNL     1      33.528  -2.353  17.111  0.00  0.00    +0.183 C 
BRANCH  24  25
ATOM     25  C   UNL     1      33.551  -3.096  15.857  0.00  0.00    +0.089 C 
ATOM     26  N   UNL     1      33.567  -3.687  14.862  0.00  0.00    -0.304 NA
ENDBRANCH  24  25
ENDBRANCH   9  24
TORSDOF 4
ENDMDL
MODEL 9
REMARK minimizedAffinity -4.60998344
REMARK minimizedRMSD -1
REMARK  Name = 301
REMARK  5 active torsions:
REMARK  status: ('A' for Active; 'I' for Inactive)
REMARK    1  A    between atoms: C_3  and  O_4
REMARK    2  A    between atoms: C_5  and  C_17
REMARK    3  A    between atoms: C_15  and  C_20
REMARK    4  A    between atoms: C_15  and  C_23
REMARK    5  A    between atoms: C_16  and  C_17
REMARK                            x       y       z     vdW  Elec       q    Type
REMARK                         _______ _______ _______ _____ _____    ______ ____
ROOT
ATOM      1  C   UNL     1      36.508  -1.540  26.252  0.00  0.00    -0.024 A 
ATOM      2  C   UNL     1      37.804  -2.026  26.438  0.00  0.00    +0.000 A 
ATOM      3  C   UNL     1      38.348  -2.109  27.720  0.00  0.00    +0.074 A 
ATOM      4  C   UNL     1      37.590  -1.661  28.807  0.00  0.00    +0.008 A 
ATOM      5  C   UNL     1      36.294  -1.164  28.619  0.00  0.00    -0.049 A 
ATOM      6  C   UNL     1      35.568  -0.598  29.846  0.00  0.00    +0.058 C 
ATOM      7  C   UNL     1      34.293   0.184  29.446  0.00  0.00    +0.018 C 
ATOM      8  C   UNL     1      33.457  -0.689  28.476  0.00  0.00    +0.003 C 
ATOM      9  C   UNL     1      31.971  -0.226  28.302  0.00  0.00    +0.012 C 
ATOM     10  C   UNL     1      31.192  -1.224  27.377  0.00  0.00    +0.024 C 
ATOM     11  C   UNL     1      30.944  -2.617  28.044  0.00  0.00    -0.014 C 
ATOM     12  C   UNL     1      31.976  -1.403  26.039  0.00  0.00    -0.011 C 
ATOM     13  C   UNL     1      33.461  -1.826  26.226  0.00  0.00    +0.010 C 
ATOM     14  C   UNL     1      34.221  -0.815  27.128  0.00  0.00    +0.030 C 
ATOM     15  C   UNL     1      35.705  -1.186  27.346  0.00  0.00    -0.048 A 
ENDROOT
BRANCH  10  16
ATOM     16  C   UNL     1      29.802  -0.684  27.067  0.00  0.00    +0.109 C 
ATOM     17  N   UNL     1      28.835  -0.696  27.926  0.00  0.00    -0.296 N 
ATOM     18  H   UNL     1      28.904  -1.066  28.886  0.00  0.00    +0.187 HD
ATOM     19  C   UNL     1      27.626  -0.117  27.383  0.00  0.00    +0.156 C 
ATOM     20  C   UNL     1      28.153   0.244  25.959  0.00  0.00    +0.150 C 
ATOM     21  N   UNL     1      29.537  -0.185  25.932  0.00  0.00    -0.273 NA
ENDBRANCH  10  16
BRANCH   3  22
ATOM     22  O   UNL     1      39.634  -2.630  27.887  0.00  0.00    -0.339 OA
ATOM     23  H   UNL     1      39.928  -2.668  28.790  0.00  0.00    +0.246 HD
ENDBRANCH   3  22
BRANCH   9  24
ATOM     24  C   UNL     1      31.823   1.259  27.831  0.00  0.00    +0.183 C 
BRANCH  24  25
ATOM     25  C   UNL     1      30.682   1.927  28.444  0.00  0.00    +0.089 C 
ATOM     26  N   UNL     1      29.775   2.459  28.929  0.00  0.00    -0.304 NA
ENDBRANCH  24  25
ENDBRANCH   9  24
TORSDOF 4
ENDMDL
MODEL 10
REMARK minimizedAffinity -4.48013163
REMARK minimizedRMSD -1
REMARK  Name = 301
REMARK  5 active torsions:
REMARK  status: ('A' for Active; 'I' for Inactive)
REMARK    1  A    between atoms: C_3  and  O_4
REMARK    2  A    between atoms: C_5  and  C_17
REMARK    3  A    between atoms: C_15  and  C_20
REMARK    4  A    between atoms: C_15  and  C_23
REMARK    5  A    between atoms: C_16  and  C_17
REMARK                            x       y       z     vdW  Elec       q    Type
REMARK                         _______ _______ _______ _____ _____    ______ ____
ROOT
ATOM      1  C   UNL     1      34.687  -2.104  27.079  0.00  0.00    -0.024 A 
ATOM      2  C   UNL     1      36.072  -2.071  27.250  0.00  0.00    +0.000 A 
ATOM      3  C   UNL     1      36.766  -0.865  27.150  0.00  0.00    +0.074 A 
ATOM      4  C   UNL     1      36.058   0.299  26.835  0.00  0.00    +0.008 A 
ATOM      5  C   UNL     1      34.670   0.265  26.653  0.00  0.00    -0.049 A 
ATOM      6  C   UNL     1      33.981   1.562  26.210  0.00  0.00    +0.058 C 
ATOM      7  C   UNL     1      32.523   1.310  25.757  0.00  0.00    +0.018 C 
ATOM      8  C   UNL     1      31.803   0.467  26.839  0.00  0.00    +0.003 C 
ATOM      9  C   UNL     1      30.241   0.470  26.732  0.00  0.00    +0.012 C 
ATOM     10  C   UNL     1      29.609  -0.333  27.922  0.00  0.00    +0.024 C 
ATOM     11  C   UNL     1      29.767   0.384  29.302  0.00  0.00    -0.014 C 
ATOM     12  C   UNL     1      30.251  -1.754  27.980  0.00  0.00    -0.011 C 
ATOM     13  C   UNL     1      31.805  -1.746  28.047  0.00  0.00    +0.010 C 
ATOM     14  C   UNL     1      32.413  -0.964  26.850  0.00  0.00    +0.030 C 
ATOM     15  C   UNL     1      33.957  -0.925  26.866  0.00  0.00    -0.048 A 
ENDROOT
BRANCH  10  16
ATOM     16  C   UNL     1      28.106  -0.478  27.724  0.00  0.00    +0.109 C 
ATOM     17  N   UNL     1      27.457  -1.556  28.025  0.00  0.00    -0.296 N 
ATOM     18  H   UNL     1      27.884  -2.409  28.417  0.00  0.00    +0.187 HD
ATOM     19  C   UNL     1      26.044  -1.429  27.748  0.00  0.00    +0.156 C 
ATOM     20  C   UNL     1      26.038   0.033  27.202  0.00  0.00    +0.150 C 
ATOM     21  N   UNL     1      27.417   0.477  27.253  0.00  0.00    -0.273 NA
ENDBRANCH  10  16
BRANCH   3  22
ATOM     22  O   UNL     1      38.149  -0.850  27.358  0.00  0.00    -0.339 OA
ATOM     23  H   UNL     1      38.546   0.011  27.288  0.00  0.00    +0.246 HD
ENDBRANCH   3  22
BRANCH   9  24
ATOM     24  C   UNL     1      29.701  -0.005  25.343  0.00  0.00    +0.183 C 
BRANCH  24  25
ATOM     25  C   UNL     1      30.630  -0.893  24.656  0.00  0.00    +0.089 C 
ATOM     26  N   UNL     1      31.368  -1.598  24.109  0.00  0.00    -0.304 NA
ENDBRANCH  24  25
ENDBRANCH   9  24
TORSDOF 4
ENDMDL
MODEL 11
REMARK minimizedAffinity -4.40262985
REMARK minimizedRMSD -1
REMARK  Name = 301
REMARK  5 active torsions:
REMARK  status: ('A' for Active; 'I' for Inactive)
REMARK    1  A    between atoms: C_3  and  O_4
REMARK    2  A    between atoms: C_5  and  C_17
REMARK    3  A    between atoms: C_15  and  C_20
REMARK    4  A    between atoms: C_15  and  C_23
REMARK    5  A    between atoms: C_16  and  C_17
REMARK                            x       y       z     vdW  Elec       q    Type
REMARK                         _______ _______ _______ _____ _____    ______ ____
ROOT
ATOM      1  C   UNL     1      29.801  -0.068  26.348  0.00  0.00    -0.024 A 
ATOM      2  C   UNL     1      28.565   0.573  26.233  0.00  0.00    +0.000 A 
ATOM      3  C   UNL     1      28.116   1.422  27.245  0.00  0.00    +0.074 A 
ATOM      4  C   UNL     1      28.902   1.587  28.390  0.00  0.00    +0.008 A 
ATOM      5  C   UNL     1      30.136   0.936  28.510  0.00  0.00    -0.049 A 
ATOM      6  C   UNL     1      30.889   1.086  29.837  0.00  0.00    +0.058 C 
ATOM      7  C   UNL     1      32.065   0.085  29.945  0.00  0.00    +0.018 C 
ATOM      8  C   UNL     1      32.907   0.163  28.647  0.00  0.00    +0.003 C 
ATOM      9  C   UNL     1      34.333  -0.473  28.758  0.00  0.00    +0.012 C 
ATOM     10  C   UNL     1      35.133  -0.260  27.426  0.00  0.00    +0.024 C 
ATOM     11  C   UNL     1      35.541   1.230  27.183  0.00  0.00    -0.014 C 
ATOM     12  C   UNL     1      34.282  -0.784  26.227  0.00  0.00    -0.011 C 
ATOM     13  C   UNL     1      32.853  -0.174  26.148  0.00  0.00    +0.010 C 
ATOM     14  C   UNL     1      32.070  -0.412  27.469  0.00  0.00    +0.030 C 
ATOM     15  C   UNL     1      30.640   0.173  27.446  0.00  0.00    -0.048 A 
ENDROOT
BRANCH  10  16
ATOM     16  C   UNL     1      36.449  -1.026  27.469  0.00  0.00    +0.109 C 
ATOM     17  N   UNL     1      37.070  -1.419  26.405  0.00  0.00    -0.296 N 
ATOM     18  H   UNL     1      36.743  -1.259  25.440  0.00  0.00    +0.187 HD
ATOM     19  C   UNL     1      38.296  -2.115  26.723  0.00  0.00    +0.156 C 
ATOM     20  C   UNL     1      38.228  -2.019  28.280  0.00  0.00    +0.150 C 
ATOM     21  N   UNL     1      37.000  -1.308  28.575  0.00  0.00    -0.273 NA
ENDBRANCH  10  16
BRANCH   3  22
ATOM     22  O   UNL     1      26.891   2.080  27.093  0.00  0.00    -0.339 OA
ATOM     23  H   UNL     1      26.662   2.652  27.817  0.00  0.00    +0.246 HD
ENDBRANCH   3  22
BRANCH   9  24
ATOM     24  C   UNL     1      34.325  -1.970  29.212  0.00  0.00    +0.183 C 
BRANCH  24  25
ATOM     25  C   UNL     1      33.509  -2.812  28.346  0.00  0.00    +0.089 C 
ATOM     26  N   UNL     1      32.862  -3.483  27.659  0.00  0.00    -0.304 NA
ENDBRANCH  24  25
ENDBRANCH   9  24
TORSDOF 4
ENDMDL
MODEL 12
REMARK minimizedAffinity -4.30932236
REMARK minimizedRMSD -1
REMARK  Name = 301
REMARK  5 active torsions:
REMARK  status: ('A' for Active; 'I' for Inactive)
REMARK    1  A    between atoms: C_3  and  O_4
REMARK    2  A    between atoms: C_5  and  C_17
REMARK    3  A    between atoms: C_15  and  C_20
REMARK    4  A    between atoms: C_15  and  C_23
REMARK    5  A    between atoms: C_16  and  C_17
REMARK                            x       y       z     vdW  Elec       q    Type
REMARK                         _______ _______ _______ _____ _____    ______ ____
ROOT
ATOM      1  C   UNL     1      34.973   2.469  16.561  0.00  0.00    -0.024 A 
ATOM      2  C   UNL     1      35.455   3.451  15.693  0.00  0.00    +0.000 A 
ATOM      3  C   UNL     1      36.733   3.340  15.145  0.00  0.00    +0.074 A 
ATOM      4  C   UNL     1      37.535   2.255  15.512  0.00  0.00    +0.008 A 
ATOM      5  C   UNL     1      37.056   1.275  16.390  0.00  0.00    -0.049 A 
ATOM      6  C   UNL     1      38.031   0.173  16.823  0.00  0.00    +0.058 C 
ATOM      7  C   UNL     1      37.475  -0.648  18.011  0.00  0.00    +0.018 C 
ATOM      8  C   UNL     1      36.025  -1.083  17.682  0.00  0.00    +0.003 C 
ATOM      9  C   UNL     1      35.474  -2.241  18.581  0.00  0.00    +0.012 C 
ATOM     10  C   UNL     1      34.040  -2.666  18.108  0.00  0.00    +0.024 C 
ATOM     11  C   UNL     1      34.039  -3.399  16.727  0.00  0.00    -0.014 C 
ATOM     12  C   UNL     1      33.125  -1.403  18.045  0.00  0.00    -0.011 C 
ATOM     13  C   UNL     1      33.701  -0.245  17.180  0.00  0.00    +0.010 C 
ATOM     14  C   UNL     1      35.112   0.175  17.676  0.00  0.00    +0.030 C 
ATOM     15  C   UNL     1      35.732   1.326  16.852  0.00  0.00    -0.048 A 
ENDROOT
BRANCH  10  16
ATOM     16  C   UNL     1      33.435  -3.666  19.084  0.00  0.00    +0.109 C 
ATOM     17  N   UNL     1      34.149  -4.500  19.770  0.00  0.00    -0.296 N 
ATOM     18  H   UNL     1      35.176  -4.572  19.724  0.00  0.00    +0.187 HD
ATOM     19  C   UNL     1      33.332  -5.330  20.626  0.00  0.00    +0.156 C 
ATOM     20  C   UNL     1      31.931  -4.749  20.255  0.00  0.00    +0.150 C 
ATOM     21  N   UNL     1      32.183  -3.716  19.271  0.00  0.00    -0.273 NA
ENDBRANCH  10  16
BRANCH   3  22
ATOM     22  O   UNL     1      37.183   4.317  14.251  0.00  0.00    -0.339 OA
ATOM     23  H   UNL     1      38.057   4.164  13.910  0.00  0.00    +0.246 HD
ENDBRANCH   3  22
BRANCH   9  24
ATOM     24  C   UNL     1      35.525  -1.930  20.113  0.00  0.00    +0.183 C 
BRANCH  24  25
ATOM     25  C   UNL     1      36.853  -2.131  20.680  0.00  0.00    +0.089 C 
ATOM     26  N   UNL     1      37.908  -2.289  21.130  0.00  0.00    -0.304 NA
ENDBRANCH  24  25
ENDBRANCH   9  24
TORSDOF 4
ENDMDL
MODEL 13
REMARK minimizedAffinity -4.25211859
REMARK minimizedRMSD -1
REMARK  Name = 301
REMARK  5 active torsions:
REMARK  status: ('A' for Active; 'I' for Inactive)
REMARK    1  A    between atoms: C_3  and  O_4
REMARK    2  A    between atoms: C_5  and  C_17
REMARK    3  A    between atoms: C_15  and  C_20
REMARK    4  A    between atoms: C_15  and  C_23
REMARK    5  A    between atoms: C_16  and  C_17
REMARK                            x       y       z     vdW  Elec       q    Type
REMARK                         _______ _______ _______ _____ _____    ______ ____
ROOT
ATOM      1  C   UNL     1      35.910   1.164  16.149  0.00  0.00    -0.024 A 
ATOM      2  C   UNL     1      36.941   1.738  15.403  0.00  0.00    +0.000 A 
ATOM      3  C   UNL     1      38.271   1.413  15.672  0.00  0.00    +0.074 A 
ATOM      4  C   UNL     1      38.553   0.537  16.726  0.00  0.00    +0.008 A 
ATOM      5  C   UNL     1      37.520  -0.031  17.481  0.00  0.00    -0.049 A 
ATOM      6  C   UNL     1      37.914  -0.899  18.682  0.00  0.00    +0.058 C 
ATOM      7  C   UNL     1      36.700  -1.203  19.592  0.00  0.00    +0.018 C 
ATOM      8  C   UNL     1      35.532  -1.713  18.712  0.00  0.00    +0.003 C 
ATOM      9  C   UNL     1      34.390  -2.437  19.502  0.00  0.00    +0.012 C 
ATOM     10  C   UNL     1      33.307  -2.992  18.513  0.00  0.00    +0.024 C 
ATOM     11  C   UNL     1      33.817  -4.193  17.651  0.00  0.00    -0.014 C 
ATOM     12  C   UNL     1      32.820  -1.836  17.584  0.00  0.00    -0.011 C 
ATOM     13  C   UNL     1      33.965  -1.099  16.834  0.00  0.00    +0.010 C 
ATOM     14  C   UNL     1      35.017  -0.539  17.831  0.00  0.00    +0.030 C 
ATOM     15  C   UNL     1      36.180   0.207  17.138  0.00  0.00    -0.048 A 
ENDROOT
BRANCH  10  16
ATOM     16  C   UNL     1      32.116  -3.541  19.286  0.00  0.00    +0.109 C 
ATOM     17  N   UNL     1      32.209  -4.532  20.113  0.00  0.00    -0.296 N 
ATOM     18  H   UNL     1      33.081  -5.041  20.325  0.00  0.00    +0.187 HD
ATOM     19  C   UNL     1      30.936  -4.848  20.719  0.00  0.00    +0.156 C 
ATOM     20  C   UNL     1      30.061  -3.761  20.020  0.00  0.00    +0.150 C 
ATOM     21  N   UNL     1      30.963  -3.032  19.151  0.00  0.00    -0.273 NA
ENDBRANCH  10  16
BRANCH   3  22
ATOM     22  O   UNL     1      39.285   1.973  14.891  0.00  0.00    -0.339 OA
ATOM     23  H   UNL     1      40.162   1.692  15.126  0.00  0.00    +0.246 HD
ENDBRANCH   3  22
BRANCH   9  24
ATOM     24  C   UNL     1      33.763  -1.571  20.643  0.00  0.00    +0.183 C 
BRANCH  24  25
ATOM     25  C   UNL     1      33.371  -2.368  21.798  0.00  0.00    +0.089 C 
ATOM     26  N   UNL     1      33.057  -3.001  22.716  0.00  0.00    -0.304 NA
ENDBRANCH  24  25
ENDBRANCH   9  24
TORSDOF 4
ENDMDL
MODEL 14
REMARK minimizedAffinity -4.03686571
REMARK minimizedRMSD -1
REMARK  Name = 301
REMARK  5 active torsions:
REMARK  status: ('A' for Active; 'I' for Inactive)
REMARK    1  A    between atoms: C_3  and  O_4
REMARK    2  A    between atoms: C_5  and  C_17
REMARK    3  A    between atoms: C_15  and  C_20
REMARK    4  A    between atoms: C_15  and  C_23
REMARK    5  A    between atoms: C_16  and  C_17
REMARK                            x       y       z     vdW  Elec       q    Type
REMARK                         _______ _______ _______ _____ _____    ______ ____
ROOT
ATOM      1  C   UNL     1      32.904  -4.168  23.762  0.00  0.00    -0.024 A 
ATOM      2  C   UNL     1      32.977  -4.832  22.536  0.00  0.00    +0.000 A 
ATOM      3  C   UNL     1      32.387  -4.279  21.399  0.00  0.00    +0.074 A 
ATOM      4  C   UNL     1      31.687  -3.073  21.518  0.00  0.00    +0.008 A 
ATOM      5  C   UNL     1      31.604  -2.412  22.750  0.00  0.00    -0.049 A 
ATOM      6  C   UNL     1      30.735  -1.151  22.820  0.00  0.00    +0.058 C 
ATOM      7  C   UNL     1      30.488  -0.707  24.282  0.00  0.00    +0.018 C 
ATOM      8  C   UNL     1      31.846  -0.665  25.026  0.00  0.00    +0.003 C 
ATOM      9  C   UNL     1      31.827   0.140  26.369  0.00  0.00    +0.012 C 
ATOM     10  C   UNL     1      33.265   0.198  26.993  0.00  0.00    +0.024 C 
ATOM     11  C   UNL     1      34.256   1.092  26.178  0.00  0.00    -0.014 C 
ATOM     12  C   UNL     1      33.830  -1.252  27.116  0.00  0.00    -0.011 C 
ATOM     13  C   UNL     1      33.809  -2.056  25.784  0.00  0.00    +0.010 C 
ATOM     14  C   UNL     1      32.373  -2.119  25.192  0.00  0.00    +0.030 C 
ATOM     15  C   UNL     1      32.293  -2.910  23.867  0.00  0.00    -0.048 A 
ENDROOT
BRANCH  10  16
ATOM     16  C   UNL     1      33.216   0.827  28.379  0.00  0.00    +0.109 C 
ATOM     17  N   UNL     1      32.141   1.348  28.878  0.00  0.00    -0.296 N 
ATOM     18  H   UNL     1      31.230   1.390  28.397  0.00  0.00    +0.187 HD
ATOM     19  C   UNL     1      32.363   1.868  30.208  0.00  0.00    +0.156 C 
ATOM     20  C   UNL     1      33.874   1.505  30.358  0.00  0.00    +0.150 C 
ATOM     21  N   UNL     1      34.248   0.861  29.115  0.00  0.00    -0.273 NA
ENDBRANCH  10  16
BRANCH   3  22
ATOM     22  O   UNL     1      32.502  -4.943  20.174  0.00  0.00    -0.339 OA
ATOM     23  H   UNL     1      32.087  -4.496  19.445  0.00  0.00    +0.246 HD
ENDBRANCH   3  22
BRANCH   9  24
ATOM     24  C   UNL     1      30.756  -0.362  27.392  0.00  0.00    +0.183 C 
BRANCH  24  25
ATOM     25  C   UNL     1      29.484   0.337  27.257  0.00  0.00    +0.089 C 
ATOM     26  N   UNL     1      28.473   0.893  27.152  0.00  0.00    -0.304 NA
ENDBRANCH  24  25
ENDBRANCH   9  24
TORSDOF 4
ENDMDL
MODEL 15
REMARK minimizedAffinity -3.95844245
REMARK minimizedRMSD -1
REMARK  Name = 301
REMARK  5 active torsions:
REMARK  status: ('A' for Active; 'I' for Inactive)
REMARK    1  A    between atoms: C_3  and  O_4
REMARK    2  A    between atoms: C_5  and  C_17
REMARK    3  A    between atoms: C_15  and  C_20
REMARK    4  A    between atoms: C_15  and  C_23
REMARK    5  A    between atoms: C_16  and  C_17
REMARK                            x       y       z     vdW  Elec       q    Type
REMARK                         _______ _______ _______ _____ _____    ______ ____
ROOT
ATOM      1  C   UNL     1      33.785  -1.975  20.915  0.00  0.00    -0.024 A 
ATOM      2  C   UNL     1      33.786  -2.253  19.546  0.00  0.00    +0.000 A 
ATOM      3  C   UNL     1      33.111  -3.371  19.055  0.00  0.00    +0.074 A 
ATOM      4  C   UNL     1      32.471  -4.227  19.957  0.00  0.00    +0.008 A 
ATOM      5  C   UNL     1      32.479  -3.954  21.331  0.00  0.00    -0.049 A 
ATOM      6  C   UNL     1      31.845  -4.992  22.263  0.00  0.00    +0.058 C 
ATOM      7  C   UNL     1      32.191  -4.717  23.747  0.00  0.00    +0.018 C 
ATOM      8  C   UNL     1      31.904  -3.227  24.058  0.00  0.00    +0.003 C 
ATOM      9  C   UNL     1      31.814  -2.887  25.583  0.00  0.00    +0.012 C 
ATOM     10  C   UNL     1      31.431  -1.379  25.786  0.00  0.00    +0.024 C 
ATOM     11  C   UNL     1      29.959  -1.055  25.370  0.00  0.00    -0.014 C 
ATOM     12  C   UNL     1      32.425  -0.485  24.981  0.00  0.00    -0.011 C 
ATOM     13  C   UNL     1      32.535  -0.856  23.475  0.00  0.00    +0.010 C 
ATOM     14  C   UNL     1      32.934  -2.347  23.294  0.00  0.00    +0.030 C 
ATOM     15  C   UNL     1      33.060  -2.771  21.814  0.00  0.00    -0.048 A 
ENDROOT
BRANCH  10  16
ATOM     16  C   UNL     1      31.513  -1.006  27.260  0.00  0.00    +0.109 C 
ATOM     17  N   UNL     1      32.100   0.067  27.683  0.00  0.00    -0.296 N 
ATOM     18  H   UNL     1      32.564   0.761  27.078  0.00  0.00    +0.187 HD
ATOM     19  C   UNL     1      32.029   0.189  29.122  0.00  0.00    +0.156 C 
ATOM     20  C   UNL     1      31.230  -1.116  29.432  0.00  0.00    +0.150 C 
ATOM     21  N   UNL     1      30.993  -1.746  28.148  0.00  0.00    -0.273 NA
ENDBRANCH  10  16
BRANCH   3  22
ATOM     22  O   UNL     1      33.096  -3.612  17.677  0.00  0.00    -0.339 OA
ATOM     23  H   UNL     1      32.604  -4.383  17.420  0.00  0.00    +0.246 HD
ENDBRANCH   3  22
BRANCH   9  24
ATOM     24  C   UNL     1      33.086  -3.291  26.398  0.00  0.00    +0.183 C 
BRANCH  24  25
ATOM     25  C   UNL     1      34.035  -2.193  26.533  0.00  0.00    +0.089 C 
ATOM     26  N   UNL     1      34.788  -1.319  26.639  0.00  0.00    -0.304 NA
ENDBRANCH  24  25
ENDBRANCH   9  24
TORSDOF 4
ENDMDL
MODEL 16
REMARK minimizedAffinity -3.55058455
REMARK minimizedRMSD -1
REMARK  Name = 301
REMARK  5 active torsions:
REMARK  status: ('A' for Active; 'I' for Inactive)
REMARK    1  A    between atoms: C_3  and  O_4
REMARK    2  A    between atoms: C_5  and  C_17
REMARK    3  A    between atoms: C_15  and  C_20
REMARK    4  A    between atoms: C_15  and  C_23
REMARK    5  A    between atoms: C_16  and  C_17
REMARK                            x       y       z     vdW  Elec       q    Type
REMARK                         _______ _______ _______ _____ _____    ______ ____
ROOT
ATOM      1  C   UNL     1      34.944   0.762  27.149  0.00  0.00    -0.024 A 
ATOM      2  C   UNL     1      36.311   0.558  26.948  0.00  0.00    +0.000 A 
ATOM      3  C   UNL     1      36.859  -0.719  27.079  0.00  0.00    +0.074 A 
ATOM      4  C   UNL     1      36.025  -1.778  27.453  0.00  0.00    +0.008 A 
ATOM      5  C   UNL     1      34.656  -1.571  27.664  0.00  0.00    -0.049 A 
ATOM      6  C   UNL     1      33.830  -2.760  28.170  0.00  0.00    +0.058 C 
ATOM      7  C   UNL     1      32.425  -2.319  28.647  0.00  0.00    +0.018 C 
ATOM      8  C   UNL     1      31.782  -1.434  27.550  0.00  0.00    +0.003 C 
ATOM      9  C   UNL     1      30.234  -1.245  27.691  0.00  0.00    +0.012 C 
ATOM     10  C   UNL     1      29.671  -0.414  26.486  0.00  0.00    +0.024 C 
ATOM     11  C   UNL     1      29.706  -1.192  25.130  0.00  0.00    -0.014 C 
ATOM     12  C   UNL     1      30.477   0.917  26.360  0.00  0.00    -0.011 C 
ATOM     13  C   UNL     1      32.016   0.720  26.259  0.00  0.00    +0.010 C 
ATOM     14  C   UNL     1      32.557  -0.088  27.471  0.00  0.00    +0.030 C 
ATOM     15  C   UNL     1      34.085  -0.312  27.422  0.00  0.00    -0.048 A 
ENDROOT
BRANCH  10  16
ATOM     16  C   UNL     1      28.202  -0.083  26.711  0.00  0.00    +0.109 C 
ATOM     17  N   UNL     1      27.793   1.086  27.086  0.00  0.00    -0.296 N 
ATOM     18  H   UNL     1      28.408   1.893  27.270  0.00  0.00    +0.187 HD
ATOM     19  C   UNL     1      26.355   1.136  27.218  0.00  0.00    +0.156 C 
ATOM     20  C   UNL     1      26.026  -0.334  26.810  0.00  0.00    +0.150 C 
ATOM     21  N   UNL     1      27.303  -0.958  26.528  0.00  0.00    -0.273 NA
ENDBRANCH  10  16
BRANCH   3  22
ATOM     22  O   UNL     1      38.223  -0.907  26.841  0.00  0.00    -0.339 OA
ATOM     23  H   UNL     1      38.517  -1.807  26.935  0.00  0.00    +0.246 HD
ENDBRANCH   3  22
BRANCH   9  24
ATOM     24  C   UNL     1      29.791  -0.661  29.073  0.00  0.00    +0.183 C 
BRANCH  24  25
ATOM     25  C   UNL     1      30.553   0.523  29.449  0.00  0.00    +0.089 C 
ATOM     26  N   UNL     1      31.161   1.462  29.748  0.00  0.00    -0.304 NA
ENDBRANCH  24  25
ENDBRANCH   9  24
TORSDOF 4
ENDMDL
MODEL 17
REMARK minimizedAffinity -2.82949758
REMARK minimizedRMSD -1
REMARK  Name = 301
REMARK  5 active torsions:
REMARK  status: ('A' for Active; 'I' for Inactive)
REMARK    1  A    between atoms: C_3  and  O_4
REMARK    2  A    between atoms: C_5  and  C_17
REMARK    3  A    between atoms: C_15  and  C_20
REMARK    4  A    between atoms: C_15  and  C_23
REMARK    5  A    between atoms: C_16  and  C_17
REMARK                            x       y       z     vdW  Elec       q    Type
REMARK                         _______ _______ _______ _____ _____    ______ ____
ROOT
ATOM      1  C   UNL     1      30.361   0.445  28.967  0.00  0.00    -0.024 A 
ATOM      2  C   UNL     1      28.995   0.691  28.819  0.00  0.00    +0.000 A 
ATOM      3  C   UNL     1      28.507   1.270  27.647  0.00  0.00    +0.074 A 
ATOM      4  C   UNL     1      29.412   1.637  26.645  0.00  0.00    +0.008 A 
ATOM      5  C   UNL     1      30.784   1.400  26.799  0.00  0.00    -0.049 A 
ATOM      6  C   UNL     1      31.720   1.924  25.703  0.00  0.00    +0.058 C 
ATOM      7  C   UNL     1      33.203   1.867  26.141  0.00  0.00    +0.018 C 
ATOM      8  C   UNL     1      33.503   0.456  26.705  0.00  0.00    +0.003 C 
ATOM      9  C   UNL     1      35.026   0.108  26.812  0.00  0.00    +0.012 C 
ATOM     10  C   UNL     1      35.217  -1.368  27.304  0.00  0.00    +0.024 C 
ATOM     11  C   UNL     1      34.791  -2.433  26.242  0.00  0.00    -0.014 C 
ATOM     12  C   UNL     1      34.411  -1.578  28.625  0.00  0.00    -0.011 C 
ATOM     13  C   UNL     1      32.908  -1.193  28.518  0.00  0.00    +0.010 C 
ATOM     14  C   UNL     1      32.739   0.278  28.048  0.00  0.00    +0.030 C 
ATOM     15  C   UNL     1      31.262   0.715  27.926  0.00  0.00    -0.048 A 
ENDROOT
BRANCH  10  16
ATOM     16  C   UNL     1      36.689  -1.650  27.574  0.00  0.00    +0.109 C 
ATOM     17  N   UNL     1      37.570  -1.755  26.632  0.00  0.00    -0.296 N 
ATOM     18  H   UNL     1      37.368  -1.663  25.625  0.00  0.00    +0.187 HD
ATOM     19  C   UNL     1      38.891  -2.015  27.158  0.00  0.00    +0.156 C 
ATOM     20  C   UNL     1      38.544  -2.032  28.680  0.00  0.00    +0.150 C 
ATOM     21  N   UNL     1      37.117  -1.789  28.759  0.00  0.00    -0.273 NA
ENDBRANCH  10  16
BRANCH   3  22
ATOM     22  O   UNL     1      27.131   1.476  27.505  0.00  0.00    -0.339 OA
ATOM     23  H   UNL     1      26.876   1.861  26.674  0.00  0.00    +0.246 HD
ENDBRANCH   3  22
BRANCH   9  24
ATOM     24  C   UNL     1      35.849   1.129  27.664  0.00  0.00    +0.183 C 
BRANCH  24  25
ATOM     25  C   UNL     1      35.184   1.479  28.913  0.00  0.00    +0.089 C 
ATOM     26  N   UNL     1      34.658   1.759  29.906  0.00  0.00    -0.304 NA
ENDBRANCH  24  25
ENDBRANCH   9  24
TORSDOF 4
ENDMDL
MODEL 18
REMARK minimizedAffinity -2.77728844
REMARK minimizedRMSD -1
REMARK  Name = 301
REMARK  5 active torsions:
REMARK  status: ('A' for Active; 'I' for Inactive)
REMARK    1  A    between atoms: C_3  and  O_4
REMARK    2  A    between atoms: C_5  and  C_17
REMARK    3  A    between atoms: C_15  and  C_20
REMARK    4  A    between atoms: C_15  and  C_23
REMARK    5  A    between atoms: C_16  and  C_17
REMARK                            x       y       z     vdW  Elec       q    Type
REMARK                         _______ _______ _______ _____ _____    ______ ____
ROOT
ATOM      1  C   UNL     1      32.647  -4.169  24.860  0.00  0.00    -0.024 A 
ATOM      2  C   UNL     1      32.023  -4.165  26.110  0.00  0.00    +0.000 A 
ATOM      3  C   UNL     1      31.337  -3.032  26.550  0.00  0.00    +0.074 A 
ATOM      4  C   UNL     1      31.321  -1.893  25.739  0.00  0.00    +0.008 A 
ATOM      5  C   UNL     1      31.956  -1.894  24.491  0.00  0.00    -0.049 A 
ATOM      6  C   UNL     1      31.981  -0.575  23.708  0.00  0.00    +0.058 C 
ATOM      7  C   UNL     1      32.962  -0.638  22.512  0.00  0.00    +0.018 C 
ATOM      8  C   UNL     1      32.680  -1.929  21.704  0.00  0.00    +0.003 C 
ATOM      9  C   UNL     1      33.295  -1.942  20.264  0.00  0.00    +0.012 C 
ATOM     10  C   UNL     1      32.876  -3.246  19.501  0.00  0.00    +0.024 C 
ATOM     11  C   UNL     1      31.359  -3.282  19.126  0.00  0.00    -0.014 C 
ATOM     12  C   UNL     1      33.242  -4.489  20.372  0.00  0.00    -0.011 C 
ATOM     13  C   UNL     1      32.658  -4.449  21.812  0.00  0.00    +0.010 C 
ATOM     14  C   UNL     1      33.099  -3.159  22.559  0.00  0.00    +0.030 C 
ATOM     15  C   UNL     1      32.548  -3.067  23.999  0.00  0.00    -0.048 A 
ENDROOT
BRANCH  10  16
ATOM     16  C   UNL     1      33.612  -3.341  18.171  0.00  0.00    +0.109 C 
ATOM     17  N   UNL     1      34.897  -3.468  18.085  0.00  0.00    -0.296 N 
ATOM     18  H   UNL     1      35.539  -3.514  18.890  0.00  0.00    +0.187 HD
ATOM     19  C   UNL     1      35.339  -3.544  16.711  0.00  0.00    +0.156 C 
ATOM     20  C   UNL     1      33.951  -3.430  16.006  0.00  0.00    +0.150 C 
ATOM     21  N   UNL     1      32.979  -3.305  17.074  0.00  0.00    -0.273 NA
ENDBRANCH  10  16
BRANCH   3  22
ATOM     22  O   UNL     1      30.690  -3.061  27.789  0.00  0.00    -0.339 OA
ATOM     23  H   UNL     1      30.233  -2.258  28.012  0.00  0.00    +0.246 HD
ENDBRANCH   3  22
BRANCH   9  24
ATOM     24  C   UNL     1      34.841  -1.707  20.234  0.00  0.00    +0.183 C 
BRANCH  24  25
ATOM     25  C   UNL     1      35.245  -0.773  19.191  0.00  0.00    +0.089 C 
ATOM     26  N   UNL     1      35.564  -0.030  18.362  0.00  0.00    -0.304 NA
ENDBRANCH  24  25
ENDBRANCH   9  24
TORSDOF 4
ENDMDL
