MODEL 1
REMARK minimizedAffinity -8.37273693
REMARK minimizedRMSD -1
REMARK  Name = 301
REMARK  5 active torsions:
REMARK  status: ('A' for Active; 'I' for Inactive)
REMARK    1  A    between atoms: C_3  and  O_4
REMARK    2  A    between atoms: C_5  and  C_17
REMARK    3  A    between atoms: C_15  and  C_20
REMARK    4  A    between atoms: C_15  and  C_23
REMARK    5  A    between atoms: C_16  and  C_17
REMARK                            x       y       z     vdW  Elec       q    Type
REMARK                         _______ _______ _______ _____ _____    ______ ____
ROOT
ATOM      1  C   UNL     1      27.740  -1.747  27.707  0.00  0.00    -0.024 A 
ATOM      2  C   UNL     1      26.368  -1.709  27.446  0.00  0.00    +0.000 A 
ATOM      3  C   UNL     1      25.733  -0.492  27.194  0.00  0.00    +0.074 A 
ATOM      4  C   UNL     1      26.484   0.687  27.248  0.00  0.00    +0.008 A 
ATOM      5  C   UNL     1      27.857   0.650  27.520  0.00  0.00    -0.049 A 
ATOM      6  C   UNL     1      28.588   1.990  27.664  0.00  0.00    +0.058 C 
ATOM      7  C   UNL     1      30.006   1.809  28.258  0.00  0.00    +0.018 C 
ATOM      8  C   UNL     1      30.736   0.692  27.472  0.00  0.00    +0.003 C 
ATOM      9  C   UNL     1      32.289   0.664  27.674  0.00  0.00    +0.012 C 
ATOM     10  C   UNL     1      32.939  -0.439  26.768  0.00  0.00    +0.024 C 
ATOM     11  C   UNL     1      32.890  -0.093  25.244  0.00  0.00    -0.014 C 
ATOM     12  C   UNL     1      32.228  -1.803  27.031  0.00  0.00    -0.011 C 
ATOM     13  C   UNL     1      30.682  -1.755  26.865  0.00  0.00    +0.010 C 
ATOM     14  C   UNL     1      30.055  -0.671  27.784  0.00  0.00    +0.030 C 
ATOM     15  C   UNL     1      28.517  -0.581  27.661  0.00  0.00    -0.048 A 
ENDROOT
BRANCH  10  16
ATOM     16  C   UNL     1      34.420  -0.584  27.090  0.00  0.00    +0.109 C 
ATOM     17  N   UNL     1      35.300   0.311  26.774  0.00  0.00    -0.296 N 
ATOM     18  H   UNL     1      35.093   1.191  26.279  0.00  0.00    +0.187 HD
ATOM     19  C   UNL     1      36.629  -0.067  27.201  0.00  0.00    +0.156 C 
ATOM     20  C   UNL     1      36.286  -1.438  27.865  0.00  0.00    +0.150 C 
ATOM     21  N   UNL     1      34.856  -1.606  27.701  0.00  0.00    -0.273 NA
ENDBRANCH  10  16
BRANCH   3  22
ATOM     22  O   UNL     1      24.366  -0.479  26.901  0.00  0.00    -0.339 OA
ATOM     23  H   UNL     1      24.011   0.385  26.727  0.00  0.00    +0.246 HD
ENDBRANCH   3  22
BRANCH   9  24
ATOM     24  C   UNL     1      32.731   0.540  29.169  0.00  0.00    +0.183 C 
BRANCH  24  25
ATOM     25  C   UNL     1      33.927   1.318  29.465  0.00  0.00    +0.089 C 
ATOM     26  N   UNL     1      34.879   1.935  29.700  0.00  0.00    -0.304 NA
ENDBRANCH  24  25
ENDBRANCH   9  24
TORSDOF 4
ENDMDL
MODEL 2
REMARK minimizedAffinity -8.09473133
REMARK minimizedRMSD -1
REMARK  Name = 301
REMARK  5 active torsions:
REMARK  status: ('A' for Active; 'I' for Inactive)
REMARK    1  A    between atoms: C_3  and  O_4
REMARK    2  A    between atoms: C_5  and  C_17
REMARK    3  A    between atoms: C_15  and  C_20
REMARK    4  A    between atoms: C_15  and  C_23
REMARK    5  A    between atoms: C_16  and  C_17
REMARK                            x       y       z     vdW  Elec       q    Type
REMARK                         _______ _______ _______ _____ _____    ______ ____
ROOT
ATOM      1  C   UNL     1      27.609   0.366  26.678  0.00  0.00    -0.024 A 
ATOM      2  C   UNL     1      26.234   0.338  26.921  0.00  0.00    +0.000 A 
ATOM      3  C   UNL     1      25.642  -0.791  27.490  0.00  0.00    +0.074 A 
ATOM      4  C   UNL     1      26.441  -1.903  27.774  0.00  0.00    +0.008 A 
ATOM      5  C   UNL     1      27.818  -1.879  27.522  0.00  0.00    -0.049 A 
ATOM      6  C   UNL     1      28.606  -3.172  27.764  0.00  0.00    +0.058 C 
ATOM      7  C   UNL     1      30.030  -3.096  27.162  0.00  0.00    +0.018 C 
ATOM      8  C   UNL     1      30.695  -1.773  27.619  0.00  0.00    +0.003 C 
ATOM      9  C   UNL     1      32.250  -1.731  27.439  0.00  0.00    +0.012 C 
ATOM     10  C   UNL     1      32.831  -0.393  28.014  0.00  0.00    +0.024 C 
ATOM     11  C   UNL     1      32.756  -0.307  29.574  0.00  0.00    -0.014 C 
ATOM     12  C   UNL     1      32.072   0.813  27.375  0.00  0.00    -0.011 C 
ATOM     13  C   UNL     1      30.526   0.741  27.526  0.00  0.00    +0.010 C 
ATOM     14  C   UNL     1      29.967  -0.582  26.934  0.00  0.00    +0.030 C 
ATOM     15  C   UNL     1      28.431  -0.706  27.055  0.00  0.00    -0.048 A 
ENDROOT
BRANCH  10  16
ATOM     16  C   UNL     1      34.313  -0.274  27.685  0.00  0.00    +0.109 C 
ATOM     17  N   UNL     1      35.164  -1.220  27.921  0.00  0.00    -0.296 N 
ATOM     18  H   UNL     1      34.931  -2.128  28.350  0.00  0.00    +0.187 HD
ATOM     19  C   UNL     1      36.501  -0.856  27.507  0.00  0.00    +0.156 C 
ATOM     20  C   UNL     1      36.199   0.572  26.953  0.00  0.00    +0.150 C 
ATOM     21  N   UNL     1      34.777   0.776  27.148  0.00  0.00    -0.273 NA
ENDBRANCH  10  16
BRANCH   3  22
ATOM     22  O   UNL     1      24.270  -0.785  27.756  0.00  0.00    -0.339 OA
ATOM     23  H   UNL     1      23.945  -1.583  28.158  0.00  0.00    +0.246 HD
ENDBRANCH   3  22
BRANCH   9  24
ATOM     24  C   UNL     1      32.724  -2.004  25.974  0.00  0.00    +0.183 C 
BRANCH  24  25
ATOM     25  C   UNL     1      32.811  -3.426  25.670  0.00  0.00    +0.089 C 
ATOM     26  N   UNL     1      32.880  -4.557  25.431  0.00  0.00    -0.304 NA
ENDBRANCH  24  25
ENDBRANCH   9  24
TORSDOF 4
ENDMDL
MODEL 3
REMARK minimizedAffinity -6.8918457
REMARK minimizedRMSD -1
REMARK  Name = 301
REMARK  5 active torsions:
REMARK  status: ('A' for Active; 'I' for Inactive)
REMARK    1  A    between atoms: C_3  and  O_4
REMARK    2  A    between atoms: C_5  and  C_17
REMARK    3  A    between atoms: C_15  and  C_20
REMARK    4  A    between atoms: C_15  and  C_23
REMARK    5  A    between atoms: C_16  and  C_17
REMARK                            x       y       z     vdW  Elec       q    Type
REMARK                         _______ _______ _______ _____ _____    ______ ____
ROOT
ATOM      1  C   UNL     1      33.836  -3.417  20.781  0.00  0.00    -0.024 A 
ATOM      2  C   UNL     1      33.024  -4.340  21.443  0.00  0.00    +0.000 A 
ATOM      3  C   UNL     1      31.787  -4.701  20.908  0.00  0.00    +0.074 A 
ATOM      4  C   UNL     1      31.360  -4.094  19.722  0.00  0.00    +0.008 A 
ATOM      5  C   UNL     1      32.170  -3.161  19.064  0.00  0.00    -0.049 A 
ATOM      6  C   UNL     1      31.587  -2.464  17.828  0.00  0.00    +0.058 C 
ATOM      7  C   UNL     1      32.452  -1.257  17.390  0.00  0.00    +0.018 C 
ATOM      8  C   UNL     1      33.932  -1.707  17.310  0.00  0.00    +0.003 C 
ATOM      9  C   UNL     1      34.863  -0.739  16.505  0.00  0.00    +0.012 C 
ATOM     10  C   UNL     1      36.313  -1.330  16.406  0.00  0.00    +0.024 C 
ATOM     11  C   UNL     1      36.404  -2.590  15.485  0.00  0.00    -0.014 C 
ATOM     12  C   UNL     1      36.824  -1.677  17.840  0.00  0.00    -0.011 C 
ATOM     13  C   UNL     1      35.873  -2.608  18.644  0.00  0.00    +0.010 C 
ATOM     14  C   UNL     1      34.448  -1.997  18.748  0.00  0.00    +0.030 C 
ATOM     15  C   UNL     1      33.460  -2.882  19.541  0.00  0.00    -0.048 A 
ENDROOT
BRANCH  10  16
ATOM     16  C   UNL     1      37.257  -0.314  15.777  0.00  0.00    +0.109 C 
ATOM     17  N   UNL     1      38.143   0.338  16.458  0.00  0.00    -0.296 N 
ATOM     18  H   UNL     1      38.295   0.240  17.473  0.00  0.00    +0.187 HD
ATOM     19  C   UNL     1      38.913   1.231  15.622  0.00  0.00    +0.156 C 
ATOM     20  C   UNL     1      38.233   0.921  14.251  0.00  0.00    +0.150 C 
ATOM     21  N   UNL     1      37.213  -0.068  14.535  0.00  0.00    -0.273 NA
ENDBRANCH  10  16
BRANCH   3  22
ATOM     22  O   UNL     1      31.005  -5.653  21.569  0.00  0.00    -0.339 OA
ATOM     23  H   UNL     1      30.185  -5.857  21.134  0.00  0.00    +0.246 HD
ENDBRANCH   3  22
BRANCH   9  24
ATOM     24  C   UNL     1      34.856   0.732  17.036  0.00  0.00    +0.183 C 
BRANCH  24  25
ATOM     25  C   UNL     1      34.924   1.714  15.962  0.00  0.00    +0.089 C 
ATOM     26  N   UNL     1      34.977   2.493  15.106  0.00  0.00    -0.304 NA
ENDBRANCH  24  25
ENDBRANCH   9  24
TORSDOF 4
ENDMDL
MODEL 4
REMARK minimizedAffinity -5.97055626
REMARK minimizedRMSD -1
REMARK  Name = 301
REMARK  5 active torsions:
REMARK  status: ('A' for Active; 'I' for Inactive)
REMARK    1  A    between atoms: C_3  and  O_4
REMARK    2  A    between atoms: C_5  and  C_17
REMARK    3  A    between atoms: C_15  and  C_20
REMARK    4  A    between atoms: C_15  and  C_23
REMARK    5  A    between atoms: C_16  and  C_17
REMARK                            x       y       z     vdW  Elec       q    Type
REMARK                         _______ _______ _______ _____ _____    ______ ____
ROOT
ATOM      1  C   UNL     1      33.158  -2.183  21.458  0.00  0.00    -0.024 A 
ATOM      2  C   UNL     1      32.925  -2.896  20.280  0.00  0.00    +0.000 A 
ATOM      3  C   UNL     1      32.337  -4.160  20.328  0.00  0.00    +0.074 A 
ATOM      4  C   UNL     1      32.023  -4.715  21.574  0.00  0.00    +0.008 A 
ATOM      5  C   UNL     1      32.267  -4.003  22.755  0.00  0.00    -0.049 A 
ATOM      6  C   UNL     1      31.991  -4.719  24.083  0.00  0.00    +0.058 C 
ATOM      7  C   UNL     1      32.584  -3.945  25.285  0.00  0.00    +0.018 C 
ATOM      8  C   UNL     1      32.150  -2.461  25.185  0.00  0.00    +0.003 C 
ATOM      9  C   UNL     1      32.320  -1.644  26.509  0.00  0.00    +0.012 C 
ATOM     10  C   UNL     1      31.769  -0.186  26.327  0.00  0.00    +0.024 C 
ATOM     11  C   UNL     1      30.212  -0.128  26.194  0.00  0.00    -0.014 C 
ATOM     12  C   UNL     1      32.439   0.463  25.076  0.00  0.00    -0.011 C 
ATOM     13  C   UNL     1      32.297  -0.376  23.774  0.00  0.00    +0.010 C 
ATOM     14  C   UNL     1      32.866  -1.809  23.967  0.00  0.00    +0.030 C 
ATOM     15  C   UNL     1      32.753  -2.688  22.701  0.00  0.00    -0.048 A 
ENDROOT
BRANCH  10  16
ATOM     16  C   UNL     1      32.090   0.658  27.553  0.00  0.00    +0.109 C 
ATOM     17  N   UNL     1      31.504   0.492  28.695  0.00  0.00    -0.296 N 
ATOM     18  H   UNL     1      30.775  -0.211  28.886  0.00  0.00    +0.187 HD
ATOM     19  C   UNL     1      31.998   1.415  29.692  0.00  0.00    +0.156 C 
ATOM     20  C   UNL     1      33.046   2.174  28.818  0.00  0.00    +0.150 C 
ATOM     21  N   UNL     1      32.968   1.571  27.502  0.00  0.00    -0.273 NA
ENDBRANCH  10  16
BRANCH   3  22
ATOM     22  O   UNL     1      32.081  -4.843  19.135  0.00  0.00    -0.339 OA
ATOM     23  H   UNL     1      31.665  -5.690  19.250  0.00  0.00    +0.246 HD
ENDBRANCH   3  22
BRANCH   9  24
ATOM     24  C   UNL     1      33.775  -1.661  27.082  0.00  0.00    +0.183 C 
BRANCH  24  25
ATOM     25  C   UNL     1      33.804  -1.815  28.530  0.00  0.00    +0.089 C 
ATOM     26  N   UNL     1      33.826  -1.936  29.682  0.00  0.00    -0.304 NA
ENDBRANCH  24  25
ENDBRANCH   9  24
TORSDOF 4
ENDMDL
MODEL 5
REMARK minimizedAffinity -5.94482613
REMARK minimizedRMSD -1
REMARK  Name = 301
REMARK  5 active torsions:
REMARK  status: ('A' for Active; 'I' for Inactive)
REMARK    1  A    between atoms: C_3  and  O_4
REMARK    2  A    between atoms: C_5  and  C_17
REMARK    3  A    between atoms: C_15  and  C_20
REMARK    4  A    between atoms: C_15  and  C_23
REMARK    5  A    between atoms: C_16  and  C_17
REMARK                            x       y       z     vdW  Elec       q    Type
REMARK                         _______ _______ _______ _____ _____    ______ ____
ROOT
ATOM      1  C   UNL     1      31.807  -2.189  22.275  0.00  0.00    -0.024 A 
ATOM      2  C   UNL     1      31.825  -3.123  21.237  0.00  0.00    +0.000 A 
ATOM      3  C   UNL     1      32.276  -4.423  21.468  0.00  0.00    +0.074 A 
ATOM      4  C   UNL     1      32.746  -4.761  22.741  0.00  0.00    +0.008 A 
ATOM      5  C   UNL     1      32.737  -3.821  23.780  0.00  0.00    -0.049 A 
ATOM      6  C   UNL     1      33.362  -4.237  25.116  0.00  0.00    +0.058 C 
ATOM      7  C   UNL     1      33.560  -3.025  26.058  0.00  0.00    +0.018 C 
ATOM      8  C   UNL     1      32.236  -2.222  26.122  0.00  0.00    +0.003 C 
ATOM      9  C   UNL     1      32.141  -1.220  27.321  0.00  0.00    +0.012 C 
ATOM     10  C   UNL     1      30.733  -0.530  27.347  0.00  0.00    +0.024 C 
ATOM     11  C   UNL     1      29.576  -1.504  27.742  0.00  0.00    -0.014 C 
ATOM     12  C   UNL     1      30.447   0.104  25.949  0.00  0.00    -0.011 C 
ATOM     13  C   UNL     1      30.581  -0.892  24.762  0.00  0.00    +0.010 C 
ATOM     14  C   UNL     1      31.989  -1.550  24.741  0.00  0.00    +0.030 C 
ATOM     15  C   UNL     1      32.179  -2.549  23.578  0.00  0.00    -0.048 A 
ENDROOT
BRANCH  10  16
ATOM     16  C   UNL     1      30.701   0.567  28.403  0.00  0.00    +0.109 C 
ATOM     17  N   UNL     1      31.054   0.372  29.632  0.00  0.00    -0.296 N 
ATOM     18  H   UNL     1      31.383  -0.528  30.014  0.00  0.00    +0.187 HD
ATOM     19  C   UNL     1      30.938   1.576  30.423  0.00  0.00    +0.156 C 
ATOM     20  C   UNL     1      30.418   2.542  29.313  0.00  0.00    +0.150 C 
ATOM     21  N   UNL     1      30.324   1.741  28.109  0.00  0.00    -0.273 NA
ENDBRANCH  10  16
BRANCH   3  22
ATOM     22  O   UNL     1      32.254  -5.352  20.423  0.00  0.00    -0.339 OA
ATOM     23  H   UNL     1      32.562  -6.219  20.662  0.00  0.00    +0.246 HD
ENDBRANCH   3  22
BRANCH   9  24
ATOM     24  C   UNL     1      33.311  -0.184  27.374  0.00  0.00    +0.183 C 
BRANCH  24  25
ATOM     25  C   UNL     1      34.296  -0.504  28.400  0.00  0.00    +0.089 C 
ATOM     26  N   UNL     1      35.078  -0.757  29.215  0.00  0.00    -0.304 NA
ENDBRANCH  24  25
ENDBRANCH   9  24
TORSDOF 4
ENDMDL
MODEL 6
REMARK minimizedAffinity -5.8140111
REMARK minimizedRMSD -1
REMARK  Name = 301
REMARK  5 active torsions:
REMARK  status: ('A' for Active; 'I' for Inactive)
REMARK    1  A    between atoms: C_3  and  O_4
REMARK    2  A    between atoms: C_5  and  C_17
REMARK    3  A    between atoms: C_15  and  C_20
REMARK    4  A    between atoms: C_15  and  C_23
REMARK    5  A    between atoms: C_16  and  C_17
REMARK                            x       y       z     vdW  Elec       q    Type
REMARK                         _______ _______ _______ _____ _____    ______ ____
ROOT
ATOM      1  C   UNL     1      32.181  -3.533  17.744  0.00  0.00    -0.024 A 
ATOM      2  C   UNL     1      30.958  -4.025  18.204  0.00  0.00    +0.000 A 
ATOM      3  C   UNL     1      30.586  -3.852  19.538  0.00  0.00    +0.074 A 
ATOM      4  C   UNL     1      31.475  -3.218  20.412  0.00  0.00    +0.008 A 
ATOM      5  C   UNL     1      32.707  -2.733  19.953  0.00  0.00    -0.049 A 
ATOM      6  C   UNL     1      33.667  -2.142  20.992  0.00  0.00    +0.058 C 
ATOM      7  C   UNL     1      35.085  -1.934  20.407  0.00  0.00    +0.018 C 
ATOM      8  C   UNL     1      34.963  -1.183  19.057  0.00  0.00    +0.003 C 
ATOM      9  C   UNL     1      36.298  -0.545  18.545  0.00  0.00    +0.012 C 
ATOM     10  C   UNL     1      36.046   0.265  17.226  0.00  0.00    +0.024 C 
ATOM     11  C   UNL     1      35.215   1.570  17.452  0.00  0.00    -0.014 C 
ATOM     12  C   UNL     1      35.327  -0.654  16.188  0.00  0.00    -0.011 C 
ATOM     13  C   UNL     1      34.023  -1.312  16.721  0.00  0.00    +0.010 C 
ATOM     14  C   UNL     1      34.295  -2.126  18.016  0.00  0.00    +0.030 C 
ATOM     15  C   UNL     1      33.031  -2.805  18.589  0.00  0.00    -0.048 A 
ENDROOT
BRANCH  10  16
ATOM     16  C   UNL     1      37.367   0.738  16.634  0.00  0.00    +0.109 C 
ATOM     17  N   UNL     1      38.504   0.196  16.930  0.00  0.00    -0.296 N 
ATOM     18  H   UNL     1      38.629  -0.592  17.583  0.00  0.00    +0.187 HD
ATOM     19  C   UNL     1      39.599   0.825  16.227  0.00  0.00    +0.156 C 
ATOM     20  C   UNL     1      38.788   1.893  15.428  0.00  0.00    +0.150 C 
ATOM     21  N   UNL     1      37.403   1.697  15.807  0.00  0.00    -0.273 NA
ENDBRANCH  10  16
BRANCH   3  22
ATOM     22  O   UNL     1      29.342  -4.323  19.970  0.00  0.00    -0.339 OA
ATOM     23  H   UNL     1      29.156  -4.154  20.887  0.00  0.00    +0.246 HD
ENDBRANCH   3  22
BRANCH   9  24
ATOM     24  C   UNL     1      37.472  -1.568  18.398  0.00  0.00    +0.183 C 
BRANCH  24  25
ATOM     25  C   UNL     1      38.191  -1.775  19.649  0.00  0.00    +0.089 C 
ATOM     26  N   UNL     1      38.762  -1.939  20.643  0.00  0.00    -0.304 NA
ENDBRANCH  24  25
ENDBRANCH   9  24
TORSDOF 4
ENDMDL
MODEL 7
REMARK minimizedAffinity -5.69366837
REMARK minimizedRMSD -1
REMARK  Name = 301
REMARK  5 active torsions:
REMARK  status: ('A' for Active; 'I' for Inactive)
REMARK    1  A    between atoms: C_3  and  O_4
REMARK    2  A    between atoms: C_5  and  C_17
REMARK    3  A    between atoms: C_15  and  C_20
REMARK    4  A    between atoms: C_15  and  C_23
REMARK    5  A    between atoms: C_16  and  C_17
REMARK                            x       y       z     vdW  Elec       q    Type
REMARK                         _______ _______ _______ _____ _____    ______ ____
ROOT
ATOM      1  C   UNL     1      27.159   0.948  26.911  0.00  0.00    -0.024 A 
ATOM      2  C   UNL     1      25.796   0.644  26.895  0.00  0.00    +0.000 A 
ATOM      3  C   UNL     1      25.349  -0.608  27.320  0.00  0.00    +0.074 A 
ATOM      4  C   UNL     1      26.289  -1.562  27.720  0.00  0.00    +0.008 A 
ATOM      5  C   UNL     1      27.657  -1.262  27.726  0.00  0.00    -0.049 A 
ATOM      6  C   UNL     1      28.630  -2.393  28.080  0.00  0.00    +0.058 C 
ATOM      7  C   UNL     1      30.094  -2.013  27.753  0.00  0.00    +0.018 C 
ATOM      8  C   UNL     1      30.392  -0.616  28.354  0.00  0.00    +0.003 C 
ATOM      9  C   UNL     1      31.915  -0.268  28.465  0.00  0.00    +0.012 C 
ATOM     10  C   UNL     1      32.110   1.120  29.168  0.00  0.00    +0.024 C 
ATOM     11  C   UNL     1      31.746   1.098  30.688  0.00  0.00    -0.014 C 
ATOM     12  C   UNL     1      31.252   2.194  28.428  0.00  0.00    -0.011 C 
ATOM     13  C   UNL     1      29.749   1.821  28.290  0.00  0.00    +0.010 C 
ATOM     14  C   UNL     1      29.575   0.452  27.574  0.00  0.00    +0.030 C 
ATOM     15  C   UNL     1      28.098   0.032  27.408  0.00  0.00    -0.048 A 
ENDROOT
BRANCH  10  16
ATOM     16  C   UNL     1      33.573   1.538  29.120  0.00  0.00    +0.109 C 
ATOM     17  N   UNL     1      34.037   2.378  28.252  0.00  0.00    -0.296 N 
ATOM     18  H   UNL     1      33.476   2.839  27.520  0.00  0.00    +0.187 HD
ATOM     19  C   UNL     1      35.453   2.608  28.430  0.00  0.00    +0.156 C 
ATOM     20  C   UNL     1      35.697   1.666  29.651  0.00  0.00    +0.150 C 
ATOM     21  N   UNL     1      34.410   1.071  29.950  0.00  0.00    -0.273 NA
ENDBRANCH  10  16
BRANCH   3  22
ATOM     22  O   UNL     1      23.977  -0.879  27.328  0.00  0.00    -0.339 OA
ATOM     23  H   UNL     1      23.751  -1.746  27.645  0.00  0.00    +0.246 HD
ENDBRANCH   3  22
BRANCH   9  24
ATOM     24  C   UNL     1      32.685  -0.359  27.107  0.00  0.00    +0.183 C 
BRANCH  24  25
ATOM     25  C   UNL     1      33.859  -1.219  27.187  0.00  0.00    +0.089 C 
ATOM     26  N   UNL     1      34.791  -1.903  27.251  0.00  0.00    -0.304 NA
ENDBRANCH  24  25
ENDBRANCH   9  24
TORSDOF 4
ENDMDL
MODEL 8
REMARK minimizedAffinity -5.61615658
REMARK minimizedRMSD -1
REMARK  Name = 301
REMARK  5 active torsions:
REMARK  status: ('A' for Active; 'I' for Inactive)
REMARK    1  A    between atoms: C_3  and  O_4
REMARK    2  A    between atoms: C_5  and  C_17
REMARK    3  A    between atoms: C_15  and  C_20
REMARK    4  A    between atoms: C_15  and  C_23
REMARK    5  A    between atoms: C_16  and  C_17
REMARK                            x       y       z     vdW  Elec       q    Type
REMARK                         _______ _______ _______ _____ _____    ______ ____
ROOT
ATOM      1  C   UNL     1      34.808   0.079  27.935  0.00  0.00    -0.024 A 
ATOM      2  C   UNL     1      36.194   0.054  27.762  0.00  0.00    +0.000 A 
ATOM      3  C   UNL     1      36.798  -0.999  27.074  0.00  0.00    +0.074 A 
ATOM      4  C   UNL     1      35.999  -2.045  26.600  0.00  0.00    +0.008 A 
ATOM      5  C   UNL     1      34.611  -2.024  26.783  0.00  0.00    -0.049 A 
ATOM      6  C   UNL     1      33.817  -3.254  26.325  0.00  0.00    +0.058 C 
ATOM      7  C   UNL     1      32.365  -3.229  26.858  0.00  0.00    +0.018 C 
ATOM      8  C   UNL     1      31.746  -1.842  26.553  0.00  0.00    +0.003 C 
ATOM      9  C   UNL     1      30.184  -1.790  26.657  0.00  0.00    +0.012 C 
ATOM     10  C   UNL     1      29.655  -0.373  26.242  0.00  0.00    +0.024 C 
ATOM     11  C   UNL     1      29.815  -0.078  24.715  0.00  0.00    -0.014 C 
ATOM     12  C   UNL     1      30.396   0.717  27.078  0.00  0.00    -0.011 C 
ATOM     13  C   UNL     1      31.947   0.632  26.998  0.00  0.00    +0.010 C 
ATOM     14  C   UNL     1      32.454  -0.772  27.432  0.00  0.00    +0.030 C 
ATOM     15  C   UNL     1      33.991  -0.912  27.373  0.00  0.00    -0.048 A 
ENDROOT
BRANCH  10  16
ATOM     16  C   UNL     1      28.159  -0.268  26.508  0.00  0.00    +0.109 C 
ATOM     17  N   UNL     1      27.304  -1.133  26.069  0.00  0.00    -0.296 N 
ATOM     18  H   UNL     1      27.542  -1.963  25.504  0.00  0.00    +0.187 HD
ATOM     19  C   UNL     1      25.953  -0.805  26.468  0.00  0.00    +0.156 C 
ATOM     20  C   UNL     1      26.252   0.499  27.272  0.00  0.00    +0.150 C 
ATOM     21  N   UNL     1      27.686   0.690  27.190  0.00  0.00    -0.273 NA
ENDBRANCH  10  16
BRANCH   3  22
ATOM     22  O   UNL     1      38.183  -0.988  26.883  0.00  0.00    -0.339 OA
ATOM     23  H   UNL     1      38.517  -1.731  26.392  0.00  0.00    +0.246 HD
ENDBRANCH   3  22
BRANCH   9  24
ATOM     24  C   UNL     1      29.627  -2.249  28.044  0.00  0.00    +0.183 C 
BRANCH  24  25
ATOM     25  C   UNL     1      28.633  -3.308  27.925  0.00  0.00    +0.089 C 
ATOM     26  N   UNL     1      27.842  -4.148  27.831  0.00  0.00    -0.304 NA
ENDBRANCH  24  25
ENDBRANCH   9  24
TORSDOF 4
ENDMDL
MODEL 9
REMARK minimizedAffinity -4.97553682
REMARK minimizedRMSD -1
REMARK  Name = 301
REMARK  5 active torsions:
REMARK  status: ('A' for Active; 'I' for Inactive)
REMARK    1  A    between atoms: C_3  and  O_4
REMARK    2  A    between atoms: C_5  and  C_17
REMARK    3  A    between atoms: C_15  and  C_20
REMARK    4  A    between atoms: C_15  and  C_23
REMARK    5  A    between atoms: C_16  and  C_17
REMARK                            x       y       z     vdW  Elec       q    Type
REMARK                         _______ _______ _______ _____ _____    ______ ____
ROOT
ATOM      1  C   UNL     1      33.006  -2.924  18.387  0.00  0.00    -0.024 A 
ATOM      2  C   UNL     1      32.342  -3.742  19.303  0.00  0.00    +0.000 A 
ATOM      3  C   UNL     1      32.861  -3.929  20.585  0.00  0.00    +0.074 A 
ATOM      4  C   UNL     1      34.074  -3.318  20.921  0.00  0.00    +0.008 A 
ATOM      5  C   UNL     1      34.745  -2.506  19.998  0.00  0.00    -0.049 A 
ATOM      6  C   UNL     1      36.117  -1.956  20.405  0.00  0.00    +0.058 C 
ATOM      7  C   UNL     1      36.869  -1.343  19.199  0.00  0.00    +0.018 C 
ATOM      8  C   UNL     1      35.916  -0.372  18.459  0.00  0.00    +0.003 C 
ATOM      9  C   UNL     1      36.630   0.620  17.480  0.00  0.00    +0.012 C 
ATOM     10  C   UNL     1      35.592   1.615  16.854  0.00  0.00    +0.024 C 
ATOM     11  C   UNL     1      35.025   2.644  17.886  0.00  0.00    -0.014 C 
ATOM     12  C   UNL     1      34.424   0.801  16.214  0.00  0.00    -0.011 C 
ATOM     13  C   UNL     1      33.747  -0.208  17.184  0.00  0.00    +0.010 C 
ATOM     14  C   UNL     1      34.787  -1.198  17.778  0.00  0.00    +0.030 C 
ATOM     15  C   UNL     1      34.168  -2.226  18.750  0.00  0.00    -0.048 A 
ENDROOT
BRANCH  10  16
ATOM     16  C   UNL     1      36.253   2.462  15.776  0.00  0.00    +0.109 C 
ATOM     17  N   UNL     1      37.407   2.175  15.264  0.00  0.00    -0.296 N 
ATOM     18  H   UNL     1      37.983   1.363  15.531  0.00  0.00    +0.187 HD
ATOM     19  C   UNL     1      37.802   3.133  14.257  0.00  0.00    +0.156 C 
ATOM     20  C   UNL     1      36.553   4.068  14.313  0.00  0.00    +0.150 C 
ATOM     21  N   UNL     1      35.683   3.500  15.324  0.00  0.00    -0.273 NA
ENDBRANCH  10  16
BRANCH   3  22
ATOM     22  O   UNL     1      32.162  -4.725  21.498  0.00  0.00    -0.339 OA
ATOM     23  H   UNL     1      32.571  -4.791  22.354  0.00  0.00    +0.246 HD
ENDBRANCH   3  22
BRANCH   9  24
ATOM     24  C   UNL     1      37.506  -0.086  16.392  0.00  0.00    +0.183 C 
BRANCH  24  25
ATOM     25  C   UNL     1      38.906   0.314  16.457  0.00  0.00    +0.089 C 
ATOM     26  N   UNL     1      40.018   0.633  16.508  0.00  0.00    -0.304 NA
ENDBRANCH  24  25
ENDBRANCH   9  24
TORSDOF 4
ENDMDL
MODEL 10
REMARK minimizedAffinity -4.47836065
REMARK minimizedRMSD -1
REMARK  Name = 301
REMARK  5 active torsions:
REMARK  status: ('A' for Active; 'I' for Inactive)
REMARK    1  A    between atoms: C_3  and  O_4
REMARK    2  A    between atoms: C_5  and  C_17
REMARK    3  A    between atoms: C_15  and  C_20
REMARK    4  A    between atoms: C_15  and  C_23
REMARK    5  A    between atoms: C_16  and  C_17
REMARK                            x       y       z     vdW  Elec       q    Type
REMARK                         _______ _______ _______ _____ _____    ______ ____
ROOT
ATOM      1  C   UNL     1      33.284   1.477  28.815  0.00  0.00    -0.024 A 
ATOM      2  C   UNL     1      34.587   1.951  28.650  0.00  0.00    +0.000 A 
ATOM      3  C   UNL     1      35.362   1.519  27.573  0.00  0.00    +0.074 A 
ATOM      4  C   UNL     1      34.828   0.576  26.689  0.00  0.00    +0.008 A 
ATOM      5  C   UNL     1      33.525   0.093  26.861  0.00  0.00    -0.049 A 
ATOM      6  C   UNL     1      33.049  -1.014  25.912  0.00  0.00    +0.058 C 
ATOM      7  C   UNL     1      31.729  -1.658  26.400  0.00  0.00    +0.018 C 
ATOM      8  C   UNL     1      30.717  -0.533  26.729  0.00  0.00    +0.003 C 
ATOM      9  C   UNL     1      29.229  -1.009  26.844  0.00  0.00    +0.012 C 
ATOM     10  C   UNL     1      28.279   0.215  27.087  0.00  0.00    +0.024 C 
ATOM     11  C   UNL     1      28.148   1.151  25.841  0.00  0.00    -0.014 C 
ATOM     12  C   UNL     1      28.795   1.028  28.316  0.00  0.00    -0.011 C 
ATOM     13  C   UNL     1      30.284   1.463  28.209  0.00  0.00    +0.010 C 
ATOM     14  C   UNL     1      31.211   0.235  27.988  0.00  0.00    +0.030 C 
ATOM     15  C   UNL     1      32.706   0.611  27.876  0.00  0.00    -0.048 A 
ENDROOT
BRANCH  10  16
ATOM     16  C   UNL     1      26.862  -0.264  27.370  0.00  0.00    +0.109 C 
ATOM     17  N   UNL     1      25.840   0.111  26.671  0.00  0.00    -0.296 N 
ATOM     18  H   UNL     1      25.880   0.759  25.870  0.00  0.00    +0.187 HD
ATOM     19  C   UNL     1      24.614  -0.494  27.142  0.00  0.00    +0.156 C 
ATOM     20  C   UNL     1      25.201  -1.336  28.319  0.00  0.00    +0.150 C 
ATOM     21  N   UNL     1      26.625  -1.069  28.320  0.00  0.00    -0.273 NA
ENDBRANCH  10  16
BRANCH   3  22
ATOM     22  O   UNL     1      36.652   2.033  27.407  0.00  0.00    -0.339 OA
ATOM     23  H   UNL     1      37.111   1.702  26.642  0.00  0.00    +0.246 HD
ENDBRANCH   3  22
BRANCH   9  24
ATOM     24  C   UNL     1      29.009  -2.149  27.892  0.00  0.00    +0.183 C 
BRANCH  24  25
ATOM     25  C   UNL     1      28.379  -3.328  27.311  0.00  0.00    +0.089 C 
ATOM     26  N   UNL     1      27.878  -4.264  26.848  0.00  0.00    -0.304 NA
ENDBRANCH  24  25
ENDBRANCH   9  24
TORSDOF 4
ENDMDL
MODEL 11
REMARK minimizedAffinity -4.19562864
REMARK minimizedRMSD -1
REMARK  Name = 301
REMARK  5 active torsions:
REMARK  status: ('A' for Active; 'I' for Inactive)
REMARK    1  A    between atoms: C_3  and  O_4
REMARK    2  A    between atoms: C_5  and  C_17
REMARK    3  A    between atoms: C_15  and  C_20
REMARK    4  A    between atoms: C_15  and  C_23
REMARK    5  A    between atoms: C_16  and  C_17
REMARK                            x       y       z     vdW  Elec       q    Type
REMARK                         _______ _______ _______ _____ _____    ______ ____
ROOT
ATOM      1  C   UNL     1      27.816   1.045  27.169  0.00  0.00    -0.024 A 
ATOM      2  C   UNL     1      26.426   0.982  27.286  0.00  0.00    +0.000 A 
ATOM      3  C   UNL     1      25.749  -0.205  27.004  0.00  0.00    +0.074 A 
ATOM      4  C   UNL     1      26.480  -1.313  26.564  0.00  0.00    +0.008 A 
ATOM      5  C   UNL     1      27.873  -1.248  26.437  0.00  0.00    -0.049 A 
ATOM      6  C   UNL     1      28.589  -2.471  25.852  0.00  0.00    +0.058 C 
ATOM      7  C   UNL     1      30.059  -2.152  25.487  0.00  0.00    +0.018 C 
ATOM      8  C   UNL     1      30.734  -1.455  26.695  0.00  0.00    +0.003 C 
ATOM      9  C   UNL     1      32.298  -1.434  26.644  0.00  0.00    +0.012 C 
ATOM     10  C   UNL     1      32.881  -0.791  27.950  0.00  0.00    +0.024 C 
ATOM     11  C   UNL     1      32.683  -1.684  29.218  0.00  0.00    -0.014 C 
ATOM     12  C   UNL     1      32.222   0.606  28.171  0.00  0.00    -0.011 C 
ATOM     13  C   UNL     1      30.667   0.580  28.183  0.00  0.00    +0.010 C 
ATOM     14  C   UNL     1      30.108  -0.042  26.873  0.00  0.00    +0.030 C 
ATOM     15  C   UNL     1      28.565  -0.091  26.829  0.00  0.00    -0.048 A 
ENDROOT
BRANCH  10  16
ATOM     16  C   UNL     1      34.388  -0.613  27.826  0.00  0.00    +0.109 C 
ATOM     17  N   UNL     1      34.967   0.543  27.881  0.00  0.00    -0.296 N 
ATOM     18  H   UNL     1      34.476   1.441  28.009  0.00  0.00    +0.187 HD
ATOM     19  C   UNL     1      36.402   0.434  27.746  0.00  0.00    +0.156 C 
ATOM     20  C   UNL     1      36.510  -1.116  27.598  0.00  0.00    +0.150 C 
ATOM     21  N   UNL     1      35.150  -1.613  27.667  0.00  0.00    -0.273 NA
ENDBRANCH  10  16
BRANCH   3  22
ATOM     22  O   UNL     1      24.360  -0.256  27.160  0.00  0.00    -0.339 OA
ATOM     23  H   UNL     1      23.974  -1.102  26.963  0.00  0.00    +0.246 HD
ENDBRANCH   3  22
BRANCH   9  24
ATOM     24  C   UNL     1      32.880  -0.778  25.349  0.00  0.00    +0.183 C 
BRANCH  24  25
ATOM     25  C   UNL     1      33.049   0.664  25.480  0.00  0.00    +0.089 C 
ATOM     26  N   UNL     1      33.185   1.809  25.583  0.00  0.00    -0.304 NA
ENDBRANCH  24  25
ENDBRANCH   9  24
TORSDOF 4
ENDMDL
MODEL 12
REMARK minimizedAffinity -3.90876317
REMARK minimizedRMSD -1
REMARK  Name = 301
REMARK  5 active torsions:
REMARK  status: ('A' for Active; 'I' for Inactive)
REMARK    1  A    between atoms: C_3  and  O_4
REMARK    2  A    between atoms: C_5  and  C_17
REMARK    3  A    between atoms: C_15  and  C_20
REMARK    4  A    between atoms: C_15  and  C_23
REMARK    5  A    between atoms: C_16  and  C_17
REMARK                            x       y       z     vdW  Elec       q    Type
REMARK                         _______ _______ _______ _____ _____    ______ ____
ROOT
ATOM      1  C   UNL     1      27.587  -0.304  27.689  0.00  0.00    -0.024 A 
ATOM      2  C   UNL     1      26.306  -0.731  28.042  0.00  0.00    +0.000 A 
ATOM      3  C   UNL     1      26.039  -2.090  28.216  0.00  0.00    +0.074 A 
ATOM      4  C   UNL     1      27.064  -3.015  27.991  0.00  0.00    +0.008 A 
ATOM      5  C   UNL     1      28.346  -2.588  27.626  0.00  0.00    -0.049 A 
ATOM      6  C   UNL     1      29.386  -3.666  27.297  0.00  0.00    +0.058 C 
ATOM      7  C   UNL     1      30.643  -3.063  26.624  0.00  0.00    +0.018 C 
ATOM      8  C   UNL     1      31.127  -1.855  27.463  0.00  0.00    +0.003 C 
ATOM      9  C   UNL     1      32.591  -1.394  27.154  0.00  0.00    +0.012 C 
ATOM     10  C   UNL     1      33.013  -0.230  28.117  0.00  0.00    +0.024 C 
ATOM     11  C   UNL     1      33.203  -0.692  29.598  0.00  0.00    -0.014 C 
ATOM     12  C   UNL     1      31.947   0.908  28.044  0.00  0.00    -0.011 C 
ATOM     13  C   UNL     1      30.492   0.432  28.314  0.00  0.00    +0.010 C 
ATOM     14  C   UNL     1      30.085  -0.707  27.338  0.00  0.00    +0.030 C 
ATOM     15  C   UNL     1      28.644  -1.217  27.562  0.00  0.00    -0.048 A 
ENDROOT
BRANCH  10  16
ATOM     16  C   UNL     1      34.367   0.334  27.705  0.00  0.00    +0.109 C 
ATOM     17  N   UNL     1      34.534   1.562  27.335  0.00  0.00    -0.296 N 
ATOM     18  H   UNL     1      33.784   2.268  27.279  0.00  0.00    +0.187 HD
ATOM     19  C   UNL     1      35.914   1.842  27.005  0.00  0.00    +0.156 C 
ATOM     20  C   UNL     1      36.518   0.430  27.289  0.00  0.00    +0.150 C 
ATOM     21  N   UNL     1      35.404  -0.394  27.715  0.00  0.00    -0.273 NA
ENDBRANCH  10  16
BRANCH   3  22
ATOM     22  O   UNL     1      24.758  -2.493  28.604  0.00  0.00    -0.339 OA
ATOM     23  H   UNL     1      24.660  -3.432  28.716  0.00  0.00    +0.246 HD
ENDBRANCH   3  22
BRANCH   9  24
ATOM     24  C   UNL     1      32.840  -1.040  25.651  0.00  0.00    +0.183 C 
BRANCH  24  25
ATOM     25  C   UNL     1      33.067  -2.222  24.829  0.00  0.00    +0.089 C 
ATOM     26  N   UNL     1      33.248  -3.163  24.178  0.00  0.00    -0.304 NA
ENDBRANCH  24  25
ENDBRANCH   9  24
TORSDOF 4
ENDMDL
MODEL 13
REMARK minimizedAffinity -3.675565
REMARK minimizedRMSD -1
REMARK  Name = 301
REMARK  5 active torsions:
REMARK  status: ('A' for Active; 'I' for Inactive)
REMARK    1  A    between atoms: C_3  and  O_4
REMARK    2  A    between atoms: C_5  and  C_17
REMARK    3  A    between atoms: C_15  and  C_20
REMARK    4  A    between atoms: C_15  and  C_23
REMARK    5  A    between atoms: C_16  and  C_17
REMARK                            x       y       z     vdW  Elec       q    Type
REMARK                         _______ _______ _______ _____ _____    ______ ____
ROOT
ATOM      1  C   UNL     1      33.939  -1.934  20.920  0.00  0.00    -0.024 A 
ATOM      2  C   UNL     1      33.997  -2.157  19.543  0.00  0.00    +0.000 A 
ATOM      3  C   UNL     1      33.316  -3.234  18.975  0.00  0.00    +0.074 A 
ATOM      4  C   UNL     1      32.612  -4.107  19.811  0.00  0.00    +0.008 A 
ATOM      5  C   UNL     1      32.563  -3.890  21.194  0.00  0.00    -0.049 A 
ATOM      6  C   UNL     1      31.859  -4.947  22.053  0.00  0.00    +0.058 C 
ATOM      7  C   UNL     1      32.142  -4.742  23.560  0.00  0.00    +0.018 C 
ATOM      8  C   UNL     1      31.881  -3.258  23.919  0.00  0.00    +0.003 C 
ATOM      9  C   UNL     1      31.729  -2.978  25.452  0.00  0.00    +0.012 C 
ATOM     10  C   UNL     1      31.377  -1.469  25.700  0.00  0.00    +0.024 C 
ATOM     11  C   UNL     1      29.935  -1.087  25.231  0.00  0.00    -0.014 C 
ATOM     12  C   UNL     1      32.430  -0.571  24.979  0.00  0.00    -0.011 C 
ATOM     13  C   UNL     1      32.600  -0.885  23.465  0.00  0.00    +0.010 C 
ATOM     14  C   UNL     1      32.968  -2.378  23.241  0.00  0.00    +0.030 C 
ATOM     15  C   UNL     1      33.152  -2.745  21.751  0.00  0.00    -0.048 A 
ENDROOT
BRANCH  10  16
ATOM     16  C   UNL     1      31.400  -1.158  27.191  0.00  0.00    +0.109 C 
ATOM     17  N   UNL     1      30.941  -1.971  28.087  0.00  0.00    -0.296 N 
ATOM     18  H   UNL     1      30.519  -2.891  27.886  0.00  0.00    +0.187 HD
ATOM     19  C   UNL     1      31.091  -1.440  29.423  0.00  0.00    +0.156 C 
ATOM     20  C   UNL     1      31.773  -0.083  29.065  0.00  0.00    +0.150 C 
ATOM     21  N   UNL     1      31.887  -0.070  27.620  0.00  0.00    -0.273 NA
ENDBRANCH  10  16
BRANCH   3  22
ATOM     22  O   UNL     1      33.359  -3.419  17.590  0.00  0.00    -0.339 OA
ATOM     23  H   UNL     1      32.858  -4.165  17.278  0.00  0.00    +0.246 HD
ENDBRANCH   3  22
BRANCH   9  24
ATOM     24  C   UNL     1      32.951  -3.450  26.306  0.00  0.00    +0.183 C 
BRANCH  24  25
ATOM     25  C   UNL     1      33.978  -2.424  26.428  0.00  0.00    +0.089 C 
ATOM     26  N   UNL     1      34.793  -1.607  26.525  0.00  0.00    -0.304 NA
ENDBRANCH  24  25
ENDBRANCH   9  24
TORSDOF 4
ENDMDL
MODEL 14
REMARK minimizedAffinity -2.91659617
REMARK minimizedRMSD -1
REMARK  Name = 301
REMARK  5 active torsions:
REMARK  status: ('A' for Active; 'I' for Inactive)
REMARK    1  A    between atoms: C_3  and  O_4
REMARK    2  A    between atoms: C_5  and  C_17
REMARK    3  A    between atoms: C_15  and  C_20
REMARK    4  A    between atoms: C_15  and  C_23
REMARK    5  A    between atoms: C_16  and  C_17
REMARK                            x       y       z     vdW  Elec       q    Type
REMARK                         _______ _______ _______ _____ _____    ______ ____
ROOT
ATOM      1  C   UNL     1      34.401  -2.118  28.238  0.00  0.00    -0.024 A 
ATOM      2  C   UNL     1      35.776  -2.028  28.465  0.00  0.00    +0.000 A 
ATOM      3  C   UNL     1      36.518  -0.995  27.892  0.00  0.00    +0.074 A 
ATOM      4  C   UNL     1      35.870  -0.079  27.056  0.00  0.00    +0.008 A 
ATOM      5  C   UNL     1      34.493  -0.175  26.820  0.00  0.00    -0.049 A 
ATOM      6  C   UNL     1      33.877   0.803  25.813  0.00  0.00    +0.058 C 
ATOM      7  C   UNL     1      32.436   0.392  25.424  0.00  0.00    +0.018 C 
ATOM      8  C   UNL     1      31.630   0.116  26.717  0.00  0.00    +0.003 C 
ATOM      9  C   UNL     1      30.076   0.087  26.521  0.00  0.00    +0.012 C 
ATOM     10  C   UNL     1      29.354  -0.106  27.900  0.00  0.00    +0.024 C 
ATOM     11  C   UNL     1      29.466   1.141  28.836  0.00  0.00    -0.014 C 
ATOM     12  C   UNL     1      29.940  -1.365  28.614  0.00  0.00    -0.011 C 
ATOM     13  C   UNL     1      31.487  -1.344  28.769  0.00  0.00    +0.010 C 
ATOM     14  C   UNL     1      32.185  -1.171  27.391  0.00  0.00    +0.030 C 
ATOM     15  C   UNL     1      33.727  -1.145  27.486  0.00  0.00    -0.048 A 
ENDROOT
BRANCH  10  16
ATOM     16  C   UNL     1      27.859  -0.308  27.691  0.00  0.00    +0.109 C 
ATOM     17  N   UNL     1      27.235  -1.379  28.063  0.00  0.00    -0.296 N 
ATOM     18  H   UNL     1      27.677  -2.187  28.525  0.00  0.00    +0.187 HD
ATOM     19  C   UNL     1      25.824  -1.313  27.756  0.00  0.00    +0.156 C 
ATOM     20  C   UNL     1      25.788   0.103  27.100  0.00  0.00    +0.150 C 
ATOM     21  N   UNL     1      27.153   0.588  27.139  0.00  0.00    -0.273 NA
ENDBRANCH  10  16
BRANCH   3  22
ATOM     22  O   UNL     1      37.887  -0.904  28.160  0.00  0.00    -0.339 OA
ATOM     23  H   UNL     1      38.319  -0.165  27.746  0.00  0.00    +0.246 HD
ENDBRANCH   3  22
BRANCH   9  24
ATOM     24  C   UNL     1      29.593  -0.942  25.448  0.00  0.00    +0.183 C 
BRANCH  24  25
ATOM     25  C   UNL     1      30.580  -1.159  24.398  0.00  0.00    +0.089 C 
ATOM     26  N   UNL     1      31.363  -1.334  23.563  0.00  0.00    -0.304 NA
ENDBRANCH  24  25
ENDBRANCH   9  24
TORSDOF 4
ENDMDL
MODEL 15
REMARK minimizedAffinity -1.75211906
REMARK minimizedRMSD -1
REMARK  Name = 301
REMARK  5 active torsions:
REMARK  status: ('A' for Active; 'I' for Inactive)
REMARK    1  A    between atoms: C_3  and  O_4
REMARK    2  A    between atoms: C_5  and  C_17
REMARK    3  A    between atoms: C_15  and  C_20
REMARK    4  A    between atoms: C_15  and  C_23
REMARK    5  A    between atoms: C_16  and  C_17
REMARK                            x       y       z     vdW  Elec       q    Type
REMARK                         _______ _______ _______ _____ _____    ______ ____
ROOT
ATOM      1  C   UNL     1      31.996   1.892  28.368  0.00  0.00    -0.024 A 
ATOM      2  C   UNL     1      32.193   2.584  29.564  0.00  0.00    +0.000 A 
ATOM      3  C   UNL     1      32.029   1.934  30.788  0.00  0.00    +0.074 A 
ATOM      4  C   UNL     1      31.624   0.595  30.795  0.00  0.00    +0.008 A 
ATOM      5  C   UNL     1      31.416  -0.095  29.595  0.00  0.00    -0.049 A 
ATOM      6  C   UNL     1      30.875  -1.527  29.686  0.00  0.00    +0.058 C 
ATOM      7  C   UNL     1      30.408  -2.052  28.307  0.00  0.00    +0.018 C 
ATOM      8  C   UNL     1      31.528  -1.790  27.269  0.00  0.00    +0.003 C 
ATOM      9  C   UNL     1      31.389  -2.609  25.942  0.00  0.00    +0.012 C 
ATOM     10  C   UNL     1      32.615  -2.341  25.002  0.00  0.00    +0.024 C 
ATOM     11  C   UNL     1      33.949  -2.956  25.537  0.00  0.00    -0.014 C 
ATOM     12  C   UNL     1      32.779  -0.802  24.799  0.00  0.00    -0.011 C 
ATOM     13  C   UNL     1      32.878   0.006  26.124  0.00  0.00    +0.010 C 
ATOM     14  C   UNL     1      31.645  -0.257  27.033  0.00  0.00    +0.030 C 
ATOM     15  C   UNL     1      31.691   0.523  28.366  0.00  0.00    -0.048 A 
ENDROOT
BRANCH  10  16
ATOM     16  C   UNL     1      32.396  -2.997  23.645  0.00  0.00    +0.109 C 
ATOM     17  N   UNL     1      32.097  -2.328  22.580  0.00  0.00    -0.296 N 
ATOM     18  H   UNL     1      31.976  -1.304  22.542  0.00  0.00    +0.187 HD
ATOM     19  C   UNL     1      31.952  -3.188  21.427  0.00  0.00    +0.156 C 
ATOM     20  C   UNL     1      32.254  -4.558  22.111  0.00  0.00    +0.150 C 
ATOM     21  N   UNL     1      32.508  -4.252  23.505  0.00  0.00    -0.273 NA
ENDBRANCH  10  16
BRANCH   3  22
ATOM     22  O   UNL     1      32.264   2.636  31.974  0.00  0.00    -0.339 OA
ATOM     23  H   UNL     1      32.146   2.122  32.765  0.00  0.00    +0.246 HD
ENDBRANCH   3  22
BRANCH   9  24
ATOM     24  C   UNL     1      30.022  -2.399  25.209  0.00  0.00    +0.183 C 
BRANCH  24  25
ATOM     25  C   UNL     1      28.880  -2.716  26.057  0.00  0.00    +0.089 C 
ATOM     26  N   UNL     1      27.971  -2.966  26.729  0.00  0.00    -0.304 NA
ENDBRANCH  24  25
ENDBRANCH   9  24
TORSDOF 4
ENDMDL
MODEL 16
REMARK minimizedAffinity -0.799719036
REMARK minimizedRMSD -1
REMARK  Name = 301
REMARK  5 active torsions:
REMARK  status: ('A' for Active; 'I' for Inactive)
REMARK    1  A    between atoms: C_3  and  O_4
REMARK    2  A    between atoms: C_5  and  C_17
REMARK    3  A    between atoms: C_15  and  C_20
REMARK    4  A    between atoms: C_15  and  C_23
REMARK    5  A    between atoms: C_16  and  C_17
REMARK                            x       y       z     vdW  Elec       q    Type
REMARK                         _______ _______ _______ _____ _____    ______ ____
ROOT
ATOM      1  C   UNL     1      31.122  -1.317  23.031  0.00  0.00    -0.024 A 
ATOM      2  C   UNL     1      31.004  -2.150  21.916  0.00  0.00    +0.000 A 
ATOM      3  C   UNL     1      31.772  -3.311  21.822  0.00  0.00    +0.074 A 
ATOM      4  C   UNL     1      32.686  -3.603  22.839  0.00  0.00    +0.008 A 
ATOM      5  C   UNL     1      32.812  -2.762  23.952  0.00  0.00    -0.049 A 
ATOM      6  C   UNL     1      33.907  -3.095  24.972  0.00  0.00    +0.058 C 
ATOM      7  C   UNL     1      34.133  -1.933  25.969  0.00  0.00    +0.018 C 
ATOM      8  C   UNL     1      32.761  -1.486  26.533  0.00  0.00    +0.003 C 
ATOM      9  C   UNL     1      32.845  -0.616  27.832  0.00  0.00    +0.012 C 
ATOM     10  C   UNL     1      31.407  -0.296  28.370  0.00  0.00    +0.024 C 
ATOM     11  C   UNL     1      30.674  -1.548  28.954  0.00  0.00    -0.014 C 
ATOM     12  C   UNL     1      30.558   0.334  27.222  0.00  0.00    -0.011 C 
ATOM     13  C   UNL     1      30.514  -0.520  25.923  0.00  0.00    +0.010 C 
ATOM     14  C   UNL     1      31.946  -0.810  25.395  0.00  0.00    +0.030 C 
ATOM     15  C   UNL     1      31.961  -1.656  24.102  0.00  0.00    -0.048 A 
ENDROOT
BRANCH  10  16
ATOM     16  C   UNL     1      31.482   0.691  29.528  0.00  0.00    +0.109 C 
ATOM     17  N   UNL     1      30.433   1.153  30.128  0.00  0.00    -0.296 N 
ATOM     18  H   UNL     1      29.461   0.908  29.886  0.00  0.00    +0.187 HD
ATOM     19  C   UNL     1      30.781   2.064  31.195  0.00  0.00    +0.156 C 
ATOM     20  C   UNL     1      32.335   2.007  31.060  0.00  0.00    +0.150 C 
ATOM     21  N   UNL     1      32.601   1.100  29.961  0.00  0.00    -0.273 NA
ENDBRANCH  10  16
BRANCH   3  22
ATOM     22  O   UNL     1      31.614  -4.149  20.713  0.00  0.00    -0.339 OA
ATOM     23  H   UNL     1      32.160  -4.927  20.729  0.00  0.00    +0.246 HD
ENDBRANCH   3  22
BRANCH   9  24
ATOM     24  C   UNL     1      33.721   0.671  27.676  0.00  0.00    +0.183 C 
BRANCH  24  25
ATOM     25  C   UNL     1      33.598   1.273  26.355  0.00  0.00    +0.089 C 
ATOM     26  N   UNL     1      33.503   1.753  25.305  0.00  0.00    -0.304 NA
ENDBRANCH  24  25
ENDBRANCH   9  24
TORSDOF 4
ENDMDL
MODEL 17
REMARK minimizedAffinity -0.15637064
REMARK minimizedRMSD -1
REMARK  Name = 301
REMARK  5 active torsions:
REMARK  status: ('A' for Active; 'I' for Inactive)
REMARK    1  A    between atoms: C_3  and  O_4
REMARK    2  A    between atoms: C_5  and  C_17
REMARK    3  A    between atoms: C_15  and  C_20
REMARK    4  A    between atoms: C_15  and  C_23
REMARK    5  A    between atoms: C_16  and  C_17
REMARK                            x       y       z     vdW  Elec       q    Type
REMARK                         _______ _______ _______ _____ _____    ______ ____
ROOT
ATOM      1  C   UNL     1      31.295  -2.942  18.203  0.00  0.00    -0.024 A 
ATOM      2  C   UNL     1      30.111  -3.324  18.836  0.00  0.00    +0.000 A 
ATOM      3  C   UNL     1      30.140  -3.840  20.132  0.00  0.00    +0.074 A 
ATOM      4  C   UNL     1      31.375  -4.005  20.768  0.00  0.00    +0.008 A 
ATOM      5  C   UNL     1      32.564  -3.632  20.129  0.00  0.00    -0.049 A 
ATOM      6  C   UNL     1      33.882  -3.939  20.849  0.00  0.00    +0.058 C 
ATOM      7  C   UNL     1      35.102  -3.759  19.914  0.00  0.00    +0.018 C 
ATOM      8  C   UNL     1      34.991  -2.383  19.210  0.00  0.00    +0.003 C 
ATOM      9  C   UNL     1      36.321  -1.879  18.555  0.00  0.00    +0.012 C 
ATOM     10  C   UNL     1      36.125  -0.444  17.953  0.00  0.00    +0.024 C 
ATOM     11  C   UNL     1      35.946   0.663  19.042  0.00  0.00    -0.014 C 
ATOM     12  C   UNL     1      34.894  -0.455  16.993  0.00  0.00    -0.011 C 
ATOM     13  C   UNL     1      33.588  -0.993  17.642  0.00  0.00    +0.010 C 
ATOM     14  C   UNL     1      33.796  -2.423  18.215  0.00  0.00    +0.030 C 
ATOM     15  C   UNL     1      32.526  -3.009  18.872  0.00  0.00    -0.048 A 
ENDROOT
BRANCH  10  16
ATOM     16  C   UNL     1      37.361  -0.027  17.167  0.00  0.00    +0.109 C 
ATOM     17  N   UNL     1      37.412  -0.045  15.874  0.00  0.00    -0.296 N 
ATOM     18  H   UNL     1      36.639  -0.340  15.258  0.00  0.00    +0.187 HD
ATOM     19  C   UNL     1      38.694   0.407  15.380  0.00  0.00    +0.156 C 
ATOM     20  C   UNL     1      39.387   0.701  16.748  0.00  0.00    +0.150 C 
ATOM     21  N   UNL     1      38.407   0.369  17.763  0.00  0.00    -0.273 NA
ENDBRANCH  10  16
BRANCH   3  22
ATOM     22  O   UNL     1      28.939  -4.184  20.760  0.00  0.00    -0.339 OA
ATOM     23  H   UNL     1      29.040  -4.514  21.647  0.00  0.00    +0.246 HD
ENDBRANCH   3  22
BRANCH   9  24
ATOM     24  C   UNL     1      36.935  -2.879  17.520  0.00  0.00    +0.183 C 
BRANCH  24  25
ATOM     25  C   UNL     1      35.964  -3.325  16.530  0.00  0.00    +0.089 C 
ATOM     26  N   UNL     1      35.190  -3.680  15.744  0.00  0.00    -0.304 NA
ENDBRANCH  24  25
ENDBRANCH   9  24
TORSDOF 4
ENDMDL
MODEL 18
REMARK minimizedAffinity 0.188948587
REMARK minimizedRMSD -1
REMARK  Name = 301
REMARK  5 active torsions:
REMARK  status: ('A' for Active; 'I' for Inactive)
REMARK    1  A    between atoms: C_3  and  O_4
REMARK    2  A    between atoms: C_5  and  C_17
REMARK    3  A    between atoms: C_15  and  C_20
REMARK    4  A    between atoms: C_15  and  C_23
REMARK    5  A    between atoms: C_16  and  C_17
REMARK                            x       y       z     vdW  Elec       q    Type
REMARK                         _______ _______ _______ _____ _____    ______ ____
ROOT
ATOM      1  C   UNL     1      28.681  -1.047  26.135  0.00  0.00    -0.024 A 
ATOM      2  C   UNL     1      27.517  -1.809  26.007  0.00  0.00    +0.000 A 
ATOM      3  C   UNL     1      27.469  -3.109  26.510  0.00  0.00    +0.074 A 
ATOM      4  C   UNL     1      28.613  -3.648  27.106  0.00  0.00    +0.008 A 
ATOM      5  C   UNL     1      29.783  -2.888  27.226  0.00  0.00    -0.049 A 
ATOM      6  C   UNL     1      31.025  -3.583  27.797  0.00  0.00    +0.058 C 
ATOM      7  C   UNL     1      32.303  -2.734  27.589  0.00  0.00    +0.018 C 
ATOM      8  C   UNL     1      32.025  -1.288  28.070  0.00  0.00    +0.003 C 
ATOM      9  C   UNL     1      33.309  -0.423  28.305  0.00  0.00    +0.012 C 
ATOM     10  C   UNL     1      32.922   0.986  28.875  0.00  0.00    +0.024 C 
ATOM     11  C   UNL     1      32.385   0.932  30.342  0.00  0.00    -0.014 C 
ATOM     12  C   UNL     1      31.860   1.644  27.940  0.00  0.00    -0.011 C 
ATOM     13  C   UNL     1      30.606   0.761  27.683  0.00  0.00    +0.010 C 
ATOM     14  C   UNL     1      31.007  -0.623  27.100  0.00  0.00    +0.030 C 
ATOM     15  C   UNL     1      29.798  -1.543  26.822  0.00  0.00    -0.048 A 
ENDROOT
BRANCH  10  16
ATOM     16  C   UNL     1      34.149   1.886  28.939  0.00  0.00    +0.109 C 
ATOM     17  N   UNL     1      34.422   2.770  28.034  0.00  0.00    -0.296 N 
ATOM     18  H   UNL     1      33.850   2.948  27.195  0.00  0.00    +0.187 HD
ATOM     19  C   UNL     1      35.636   3.494  28.338  0.00  0.00    +0.156 C 
ATOM     20  C   UNL     1      36.004   2.791  29.682  0.00  0.00    +0.150 C 
ATOM     21  N   UNL     1      34.965   1.805  29.906  0.00  0.00    -0.273 NA
ENDBRANCH  10  16
BRANCH   3  22
ATOM     22  O   UNL     1      26.283  -3.842  26.402  0.00  0.00    -0.339 OA
ATOM     23  H   UNL     1      26.324  -4.713  26.781  0.00  0.00    +0.246 HD
ENDBRANCH   3  22
BRANCH   9  24
ATOM     24  C   UNL     1      34.241  -0.322  27.053  0.00  0.00    +0.183 C 
BRANCH  24  25
ATOM     25  C   UNL     1      35.614  -0.712  27.345  0.00  0.00    +0.089 C 
ATOM     26  N   UNL     1      36.705  -1.021  27.579  0.00  0.00    -0.304 NA
ENDBRANCH  24  25
ENDBRANCH   9  24
TORSDOF 4
ENDMDL
