MODEL 1
REMARK minimizedAffinity -8.35311222
REMARK minimizedRMSD -1
REMARK  Name = 301
REMARK  5 active torsions:
REMARK  status: ('A' for Active; 'I' for Inactive)
REMARK    1  A    between atoms: C_3  and  O_4
REMARK    2  A    between atoms: C_5  and  C_17
REMARK    3  A    between atoms: C_15  and  C_20
REMARK    4  A    between atoms: C_15  and  C_23
REMARK    5  A    between atoms: C_16  and  C_17
REMARK                            x       y       z     vdW  Elec       q    Type
REMARK                         _______ _______ _______ _____ _____    ______ ____
ROOT
ATOM      1  C   UNL     1      27.715  -1.759  27.696  0.00  0.00    -0.024 A 
ATOM      2  C   UNL     1      26.345  -1.715  27.430  0.00  0.00    +0.000 A 
ATOM      3  C   UNL     1      25.715  -0.495  27.180  0.00  0.00    +0.074 A 
ATOM      4  C   UNL     1      26.470   0.681  27.240  0.00  0.00    +0.008 A 
ATOM      5  C   UNL     1      27.841   0.638  27.517  0.00  0.00    -0.049 A 
ATOM      6  C   UNL     1      28.577   1.975  27.667  0.00  0.00    +0.058 C 
ATOM      7  C   UNL     1      29.991   1.787  28.266  0.00  0.00    +0.018 C 
ATOM      8  C   UNL     1      30.721   0.669  27.479  0.00  0.00    +0.003 C 
ATOM      9  C   UNL     1      32.273   0.636  27.686  0.00  0.00    +0.012 C 
ATOM     10  C   UNL     1      32.922  -0.467  26.779  0.00  0.00    +0.024 C 
ATOM     11  C   UNL     1      32.880  -0.116  25.256  0.00  0.00    -0.014 C 
ATOM     12  C   UNL     1      32.205  -1.829  27.035  0.00  0.00    -0.011 C 
ATOM     13  C   UNL     1      30.661  -1.775  26.864  0.00  0.00    +0.010 C 
ATOM     14  C   UNL     1      30.033  -0.692  27.785  0.00  0.00    +0.030 C 
ATOM     15  C   UNL     1      28.497  -0.596  27.657  0.00  0.00    -0.048 A 
ENDROOT
BRANCH  10  16
ATOM     16  C   UNL     1      34.402  -0.618  27.107  0.00  0.00    +0.109 C 
ATOM     17  N   UNL     1      35.289   0.266  26.780  0.00  0.00    -0.296 N 
ATOM     18  H   UNL     1      35.088   1.142  26.273  0.00  0.00    +0.187 HD
ATOM     19  C   UNL     1      36.614  -0.115  27.215  0.00  0.00    +0.156 C 
ATOM     20  C   UNL     1      36.260  -1.474  27.896  0.00  0.00    +0.150 C 
ATOM     21  N   UNL     1      34.829  -1.635  27.731  0.00  0.00    -0.273 NA
ENDBRANCH  10  16
BRANCH   3  22
ATOM     22  O   UNL     1      24.349  -0.477  26.882  0.00  0.00    -0.339 OA
ATOM     23  H   UNL     1      23.997   0.388  26.709  0.00  0.00    +0.246 HD
ENDBRANCH   3  22
BRANCH   9  24
ATOM     24  C   UNL     1      32.709   0.506  29.183  0.00  0.00    +0.183 C 
BRANCH  24  25
ATOM     25  C   UNL     1      33.902   1.285  29.487  0.00  0.00    +0.089 C 
ATOM     26  N   UNL     1      34.852   1.902  29.728  0.00  0.00    -0.304 NA
ENDBRANCH  24  25
ENDBRANCH   9  24
TORSDOF 4
ENDMDL
MODEL 2
REMARK minimizedAffinity -8.08347034
REMARK minimizedRMSD -1
REMARK  Name = 301
REMARK  5 active torsions:
REMARK  status: ('A' for Active; 'I' for Inactive)
REMARK    1  A    between atoms: C_3  and  O_4
REMARK    2  A    between atoms: C_5  and  C_17
REMARK    3  A    between atoms: C_15  and  C_20
REMARK    4  A    between atoms: C_15  and  C_23
REMARK    5  A    between atoms: C_16  and  C_17
REMARK                            x       y       z     vdW  Elec       q    Type
REMARK                         _______ _______ _______ _____ _____    ______ ____
ROOT
ATOM      1  C   UNL     1      27.608   0.366  26.678  0.00  0.00    -0.024 A 
ATOM      2  C   UNL     1      26.233   0.338  26.920  0.00  0.00    +0.000 A 
ATOM      3  C   UNL     1      25.641  -0.790  27.491  0.00  0.00    +0.074 A 
ATOM      4  C   UNL     1      26.440  -1.902  27.775  0.00  0.00    +0.008 A 
ATOM      5  C   UNL     1      27.817  -1.878  27.523  0.00  0.00    -0.049 A 
ATOM      6  C   UNL     1      28.605  -3.171  27.766  0.00  0.00    +0.058 C 
ATOM      7  C   UNL     1      30.029  -3.096  27.164  0.00  0.00    +0.018 C 
ATOM      8  C   UNL     1      30.694  -1.773  27.620  0.00  0.00    +0.003 C 
ATOM      9  C   UNL     1      32.248  -1.731  27.441  0.00  0.00    +0.012 C 
ATOM     10  C   UNL     1      32.830  -0.392  28.015  0.00  0.00    +0.024 C 
ATOM     11  C   UNL     1      32.755  -0.306  29.574  0.00  0.00    -0.014 C 
ATOM     12  C   UNL     1      32.071   0.812  27.375  0.00  0.00    -0.011 C 
ATOM     13  C   UNL     1      30.525   0.741  27.526  0.00  0.00    +0.010 C 
ATOM     14  C   UNL     1      29.966  -0.582  26.934  0.00  0.00    +0.030 C 
ATOM     15  C   UNL     1      28.430  -0.706  27.056  0.00  0.00    -0.048 A 
ENDROOT
BRANCH  10  16
ATOM     16  C   UNL     1      34.312  -0.274  27.685  0.00  0.00    +0.109 C 
ATOM     17  N   UNL     1      35.163  -1.220  27.922  0.00  0.00    -0.296 N 
ATOM     18  H   UNL     1      34.930  -2.128  28.351  0.00  0.00    +0.187 HD
ATOM     19  C   UNL     1      36.500  -0.857  27.507  0.00  0.00    +0.156 C 
ATOM     20  C   UNL     1      36.198   0.571  26.954  0.00  0.00    +0.150 C 
ATOM     21  N   UNL     1      34.777   0.776  27.148  0.00  0.00    -0.273 NA
ENDBRANCH  10  16
BRANCH   3  22
ATOM     22  O   UNL     1      24.269  -0.784  27.756  0.00  0.00    -0.339 OA
ATOM     23  H   UNL     1      23.944  -1.582  28.159  0.00  0.00    +0.246 HD
ENDBRANCH   3  22
BRANCH   9  24
ATOM     24  C   UNL     1      32.723  -2.005  25.976  0.00  0.00    +0.183 C 
BRANCH  24  25
ATOM     25  C   UNL     1      32.810  -3.428  25.673  0.00  0.00    +0.089 C 
ATOM     26  N   UNL     1      32.877  -4.558  25.433  0.00  0.00    -0.304 NA
ENDBRANCH  24  25
ENDBRANCH   9  24
TORSDOF 4
ENDMDL
MODEL 3
REMARK minimizedAffinity -6.86107683
REMARK minimizedRMSD -1
REMARK  Name = 301
REMARK  5 active torsions:
REMARK  status: ('A' for Active; 'I' for Inactive)
REMARK    1  A    between atoms: C_3  and  O_4
REMARK    2  A    between atoms: C_5  and  C_17
REMARK    3  A    between atoms: C_15  and  C_20
REMARK    4  A    between atoms: C_15  and  C_23
REMARK    5  A    between atoms: C_16  and  C_17
REMARK                            x       y       z     vdW  Elec       q    Type
REMARK                         _______ _______ _______ _____ _____    ______ ____
ROOT
ATOM      1  C   UNL     1      33.843  -3.422  20.785  0.00  0.00    -0.024 A 
ATOM      2  C   UNL     1      33.036  -4.348  21.449  0.00  0.00    +0.000 A 
ATOM      3  C   UNL     1      31.802  -4.718  20.913  0.00  0.00    +0.074 A 
ATOM      4  C   UNL     1      31.372  -4.117  19.726  0.00  0.00    +0.008 A 
ATOM      5  C   UNL     1      32.177  -3.180  19.066  0.00  0.00    -0.049 A 
ATOM      6  C   UNL     1      31.591  -2.490  17.827  0.00  0.00    +0.058 C 
ATOM      7  C   UNL     1      32.448  -1.279  17.387  0.00  0.00    +0.018 C 
ATOM      8  C   UNL     1      33.932  -1.720  17.310  0.00  0.00    +0.003 C 
ATOM      9  C   UNL     1      34.857  -0.748  16.503  0.00  0.00    +0.012 C 
ATOM     10  C   UNL     1      36.310  -1.330  16.407  0.00  0.00    +0.024 C 
ATOM     11  C   UNL     1      36.410  -2.591  15.489  0.00  0.00    -0.014 C 
ATOM     12  C   UNL     1      36.822  -1.670  17.842  0.00  0.00    -0.011 C 
ATOM     13  C   UNL     1      35.877  -2.605  18.648  0.00  0.00    +0.010 C 
ATOM     14  C   UNL     1      34.448  -2.003  18.749  0.00  0.00    +0.030 C 
ATOM     15  C   UNL     1      33.465  -2.892  19.543  0.00  0.00    -0.048 A 
ENDROOT
BRANCH  10  16
ATOM     16  C   UNL     1      37.249  -0.309  15.777  0.00  0.00    +0.109 C 
ATOM     17  N   UNL     1      38.139   0.341  16.455  0.00  0.00    -0.296 N 
ATOM     18  H   UNL     1      38.297   0.239  17.468  0.00  0.00    +0.187 HD
ATOM     19  C   UNL     1      38.902   1.240  15.618  0.00  0.00    +0.156 C 
ATOM     20  C   UNL     1      38.214   0.934  14.250  0.00  0.00    +0.150 C 
ATOM     21  N   UNL     1      37.196  -0.058  14.536  0.00  0.00    -0.273 NA
ENDBRANCH  10  16
BRANCH   3  22
ATOM     22  O   UNL     1      31.025  -5.673  21.576  0.00  0.00    -0.339 OA
ATOM     23  H   UNL     1      30.207  -5.883  21.141  0.00  0.00    +0.246 HD
ENDBRANCH   3  22
BRANCH   9  24
ATOM     24  C   UNL     1      34.841   0.725  17.031  0.00  0.00    +0.183 C 
BRANCH  24  25
ATOM     25  C   UNL     1      34.892   1.705  15.954  0.00  0.00    +0.089 C 
ATOM     26  N   UNL     1      34.931   2.485  15.099  0.00  0.00    -0.304 NA
ENDBRANCH  24  25
ENDBRANCH   9  24
TORSDOF 4
ENDMDL
MODEL 4
REMARK minimizedAffinity -5.91948128
REMARK minimizedRMSD -1
REMARK  Name = 301
REMARK  5 active torsions:
REMARK  status: ('A' for Active; 'I' for Inactive)
REMARK    1  A    between atoms: C_3  and  O_4
REMARK    2  A    between atoms: C_5  and  C_17
REMARK    3  A    between atoms: C_15  and  C_20
REMARK    4  A    between atoms: C_15  and  C_23
REMARK    5  A    between atoms: C_16  and  C_17
REMARK                            x       y       z     vdW  Elec       q    Type
REMARK                         _______ _______ _______ _____ _____    ______ ____
ROOT
ATOM      1  C   UNL     1      31.807  -2.193  22.274  0.00  0.00    -0.024 A 
ATOM      2  C   UNL     1      31.827  -3.127  21.236  0.00  0.00    +0.000 A 
ATOM      3  C   UNL     1      32.279  -4.426  21.468  0.00  0.00    +0.074 A 
ATOM      4  C   UNL     1      32.749  -4.763  22.741  0.00  0.00    +0.008 A 
ATOM      5  C   UNL     1      32.739  -3.823  23.779  0.00  0.00    -0.049 A 
ATOM      6  C   UNL     1      33.366  -4.237  25.116  0.00  0.00    +0.058 C 
ATOM      7  C   UNL     1      33.561  -3.024  26.057  0.00  0.00    +0.018 C 
ATOM      8  C   UNL     1      32.236  -2.223  26.121  0.00  0.00    +0.003 C 
ATOM      9  C   UNL     1      32.140  -1.220  27.320  0.00  0.00    +0.012 C 
ATOM     10  C   UNL     1      30.731  -0.532  27.345  0.00  0.00    +0.024 C 
ATOM     11  C   UNL     1      29.575  -1.508  27.740  0.00  0.00    -0.014 C 
ATOM     12  C   UNL     1      30.443   0.100  25.947  0.00  0.00    -0.011 C 
ATOM     13  C   UNL     1      30.579  -0.896  24.760  0.00  0.00    +0.010 C 
ATOM     14  C   UNL     1      31.988  -1.552  24.740  0.00  0.00    +0.030 C 
ATOM     15  C   UNL     1      32.180  -2.552  23.577  0.00  0.00    -0.048 A 
ENDROOT
BRANCH  10  16
ATOM     16  C   UNL     1      30.697   0.565  28.400  0.00  0.00    +0.109 C 
ATOM     17  N   UNL     1      31.046   0.370  29.631  0.00  0.00    -0.296 N 
ATOM     18  H   UNL     1      31.373  -0.530  30.014  0.00  0.00    +0.187 HD
ATOM     19  C   UNL     1      30.929   1.575  30.421  0.00  0.00    +0.156 C 
ATOM     20  C   UNL     1      30.414   2.541  29.309  0.00  0.00    +0.150 C 
ATOM     21  N   UNL     1      30.322   1.740  28.104  0.00  0.00    -0.273 NA
ENDBRANCH  10  16
BRANCH   3  22
ATOM     22  O   UNL     1      32.259  -5.355  20.423  0.00  0.00    -0.339 OA
ATOM     23  H   UNL     1      32.568  -6.222  20.663  0.00  0.00    +0.246 HD
ENDBRANCH   3  22
BRANCH   9  24
ATOM     24  C   UNL     1      33.308  -0.182  27.372  0.00  0.00    +0.183 C 
BRANCH  24  25
ATOM     25  C   UNL     1      34.290  -0.498  28.402  0.00  0.00    +0.089 C 
ATOM     26  N   UNL     1      35.072  -0.748  29.219  0.00  0.00    -0.304 NA
ENDBRANCH  24  25
ENDBRANCH   9  24
TORSDOF 4
ENDMDL
MODEL 5
REMARK minimizedAffinity -5.7094841
REMARK minimizedRMSD -1
REMARK  Name = 301
REMARK  5 active torsions:
REMARK  status: ('A' for Active; 'I' for Inactive)
REMARK    1  A    between atoms: C_3  and  O_4
REMARK    2  A    between atoms: C_5  and  C_17
REMARK    3  A    between atoms: C_15  and  C_20
REMARK    4  A    between atoms: C_15  and  C_23
REMARK    5  A    between atoms: C_16  and  C_17
REMARK                            x       y       z     vdW  Elec       q    Type
REMARK                         _______ _______ _______ _____ _____    ______ ____
ROOT
ATOM      1  C   UNL     1      27.161   0.940  26.904  0.00  0.00    -0.024 A 
ATOM      2  C   UNL     1      25.798   0.640  26.890  0.00  0.00    +0.000 A 
ATOM      3  C   UNL     1      25.347  -0.610  27.317  0.00  0.00    +0.074 A 
ATOM      4  C   UNL     1      26.285  -1.567  27.718  0.00  0.00    +0.008 A 
ATOM      5  C   UNL     1      27.654  -1.269  27.723  0.00  0.00    -0.049 A 
ATOM      6  C   UNL     1      28.624  -2.403  28.077  0.00  0.00    +0.058 C 
ATOM      7  C   UNL     1      30.089  -2.026  27.749  0.00  0.00    +0.018 C 
ATOM      8  C   UNL     1      30.392  -0.630  28.348  0.00  0.00    +0.003 C 
ATOM      9  C   UNL     1      31.915  -0.286  28.457  0.00  0.00    +0.012 C 
ATOM     10  C   UNL     1      32.114   1.103  29.157  0.00  0.00    +0.024 C 
ATOM     11  C   UNL     1      31.751   1.085  30.678  0.00  0.00    -0.014 C 
ATOM     12  C   UNL     1      31.258   2.178  28.416  0.00  0.00    -0.011 C 
ATOM     13  C   UNL     1      29.754   1.809  28.280  0.00  0.00    +0.010 C 
ATOM     14  C   UNL     1      29.577   0.439  27.566  0.00  0.00    +0.030 C 
ATOM     15  C   UNL     1      28.098   0.023  27.402  0.00  0.00    -0.048 A 
ENDROOT
BRANCH  10  16
ATOM     16  C   UNL     1      33.578   1.517  29.108  0.00  0.00    +0.109 C 
ATOM     17  N   UNL     1      34.046   2.346  28.232  0.00  0.00    -0.296 N 
ATOM     18  H   UNL     1      33.487   2.799  27.493  0.00  0.00    +0.187 HD
ATOM     19  C   UNL     1      35.462   2.575  28.409  0.00  0.00    +0.156 C 
ATOM     20  C   UNL     1      35.701   1.648  29.642  0.00  0.00    +0.150 C 
ATOM     21  N   UNL     1      34.412   1.059  29.946  0.00  0.00    -0.273 NA
ENDBRANCH  10  16
BRANCH   3  22
ATOM     22  O   UNL     1      23.975  -0.878  27.327  0.00  0.00    -0.339 OA
ATOM     23  H   UNL     1      23.747  -1.744  27.645  0.00  0.00    +0.246 HD
ENDBRANCH   3  22
BRANCH   9  24
ATOM     24  C   UNL     1      32.684  -0.381  27.098  0.00  0.00    +0.183 C 
BRANCH  24  25
ATOM     25  C   UNL     1      33.868  -1.227  27.184  0.00  0.00    +0.089 C 
ATOM     26  N   UNL     1      34.808  -1.899  27.250  0.00  0.00    -0.304 NA
ENDBRANCH  24  25
ENDBRANCH   9  24
TORSDOF 4
ENDMDL
MODEL 6
REMARK minimizedAffinity -5.60356522
REMARK minimizedRMSD -1
REMARK  Name = 301
REMARK  5 active torsions:
REMARK  status: ('A' for Active; 'I' for Inactive)
REMARK    1  A    between atoms: C_3  and  O_4
REMARK    2  A    between atoms: C_5  and  C_17
REMARK    3  A    between atoms: C_15  and  C_20
REMARK    4  A    between atoms: C_15  and  C_23
REMARK    5  A    between atoms: C_16  and  C_17
REMARK                            x       y       z     vdW  Elec       q    Type
REMARK                         _______ _______ _______ _____ _____    ______ ____
ROOT
ATOM      1  C   UNL     1      34.808   0.086  27.934  0.00  0.00    -0.024 A 
ATOM      2  C   UNL     1      36.193   0.058  27.758  0.00  0.00    +0.000 A 
ATOM      3  C   UNL     1      36.794  -0.995  27.067  0.00  0.00    +0.074 A 
ATOM      4  C   UNL     1      35.992  -2.038  26.593  0.00  0.00    +0.008 A 
ATOM      5  C   UNL     1      34.604  -2.015  26.778  0.00  0.00    -0.049 A 
ATOM      6  C   UNL     1      33.808  -3.243  26.320  0.00  0.00    +0.058 C 
ATOM      7  C   UNL     1      32.356  -3.216  26.855  0.00  0.00    +0.018 C 
ATOM      8  C   UNL     1      31.739  -1.827  26.555  0.00  0.00    +0.003 C 
ATOM      9  C   UNL     1      30.178  -1.772  26.662  0.00  0.00    +0.012 C 
ATOM     10  C   UNL     1      29.651  -0.353  26.250  0.00  0.00    +0.024 C 
ATOM     11  C   UNL     1      29.808  -0.056  24.724  0.00  0.00    -0.014 C 
ATOM     12  C   UNL     1      30.396   0.733  27.087  0.00  0.00    -0.011 C 
ATOM     13  C   UNL     1      31.946   0.646  27.004  0.00  0.00    +0.010 C 
ATOM     14  C   UNL     1      32.451  -0.760  27.434  0.00  0.00    +0.030 C 
ATOM     15  C   UNL     1      33.988  -0.903  27.372  0.00  0.00    -0.048 A 
ENDROOT
BRANCH  10  16
ATOM     16  C   UNL     1      28.156  -0.245  26.520  0.00  0.00    +0.109 C 
ATOM     17  N   UNL     1      27.299  -1.114  26.089  0.00  0.00    -0.296 N 
ATOM     18  H   UNL     1      27.535  -1.947  25.529  0.00  0.00    +0.187 HD
ATOM     19  C   UNL     1      25.950  -0.782  26.489  0.00  0.00    +0.156 C 
ATOM     20  C   UNL     1      26.251   0.527  27.284  0.00  0.00    +0.150 C 
ATOM     21  N   UNL     1      27.685   0.717  27.197  0.00  0.00    -0.273 NA
ENDBRANCH  10  16
BRANCH   3  22
ATOM     22  O   UNL     1      38.179  -0.986  26.873  0.00  0.00    -0.339 OA
ATOM     23  H   UNL     1      38.510  -1.728  26.381  0.00  0.00    +0.246 HD
ENDBRANCH   3  22
BRANCH   9  24
ATOM     24  C   UNL     1      29.623  -2.232  28.049  0.00  0.00    +0.183 C 
BRANCH  24  25
ATOM     25  C   UNL     1      28.624  -3.287  27.930  0.00  0.00    +0.089 C 
ATOM     26  N   UNL     1      27.832  -4.127  27.835  0.00  0.00    -0.304 NA
ENDBRANCH  24  25
ENDBRANCH   9  24
TORSDOF 4
ENDMDL
MODEL 7
REMARK minimizedAffinity -5.2695303
REMARK minimizedRMSD -1
REMARK  Name = 301
REMARK  5 active torsions:
REMARK  status: ('A' for Active; 'I' for Inactive)
REMARK    1  A    between atoms: C_3  and  O_4
REMARK    2  A    between atoms: C_5  and  C_17
REMARK    3  A    between atoms: C_15  and  C_20
REMARK    4  A    between atoms: C_15  and  C_23
REMARK    5  A    between atoms: C_16  and  C_17
REMARK                            x       y       z     vdW  Elec       q    Type
REMARK                         _______ _______ _______ _____ _____    ______ ____
ROOT
ATOM      1  C   UNL     1      33.665  -1.893  20.590  0.00  0.00    -0.024 A 
ATOM      2  C   UNL     1      33.619  -2.277  19.248  0.00  0.00    +0.000 A 
ATOM      3  C   UNL     1      32.990  -3.466  18.878  0.00  0.00    +0.074 A 
ATOM      4  C   UNL     1      32.445  -4.283  19.874  0.00  0.00    +0.008 A 
ATOM      5  C   UNL     1      32.500  -3.903  21.220  0.00  0.00    -0.049 A 
ATOM      6  C   UNL     1      31.973  -4.899  22.260  0.00  0.00    +0.058 C 
ATOM      7  C   UNL     1      32.370  -4.490  23.699  0.00  0.00    +0.018 C 
ATOM      8  C   UNL     1      32.010  -2.998  23.910  0.00  0.00    +0.003 C 
ATOM      9  C   UNL     1      31.971  -2.545  25.409  0.00  0.00    +0.012 C 
ATOM     10  C   UNL     1      31.509  -1.050  25.517  0.00  0.00    +0.024 C 
ATOM     11  C   UNL     1      30.003  -0.842  25.152  0.00  0.00    -0.014 C 
ATOM     12  C   UNL     1      32.409  -0.167  24.596  0.00  0.00    -0.011 C 
ATOM     13  C   UNL     1      32.471  -0.649  23.119  0.00  0.00    +0.010 C 
ATOM     14  C   UNL     1      32.949  -2.125  23.031  0.00  0.00    +0.030 C 
ATOM     15  C   UNL     1      33.032  -2.655  21.582  0.00  0.00    -0.048 A 
ENDROOT
BRANCH  10  16
ATOM     16  C   UNL     1      31.638  -0.558  26.952  0.00  0.00    +0.109 C 
ATOM     17  N   UNL     1      31.048  -1.136  27.949  0.00  0.00    -0.296 N 
ATOM     18  H   UNL     1      30.443  -1.967  27.874  0.00  0.00    +0.187 HD
ATOM     19  C   UNL     1      31.341  -0.477  29.202  0.00  0.00    +0.156 C 
ATOM     20  C   UNL     1      32.275   0.653  28.665  0.00  0.00    +0.150 C 
ATOM     21  N   UNL     1      32.348   0.454  27.231  0.00  0.00    -0.273 NA
ENDBRANCH  10  16
BRANCH   3  22
ATOM     22  O   UNL     1      32.925  -3.815  17.525  0.00  0.00    -0.339 OA
ATOM     23  H   UNL     1      32.468  -4.630  17.352  0.00  0.00    +0.246 HD
ENDBRANCH   3  22
BRANCH   9  24
ATOM     24  C   UNL     1      33.302  -2.812  26.185  0.00  0.00    +0.183 C 
BRANCH  24  25
ATOM     25  C   UNL     1      33.314  -4.113  26.843  0.00  0.00    +0.089 C 
ATOM     26  N   UNL     1      33.326  -5.146  27.365  0.00  0.00    -0.304 NA
ENDBRANCH  24  25
ENDBRANCH   9  24
TORSDOF 4
ENDMDL
MODEL 8
REMARK minimizedAffinity -5.25188541
REMARK minimizedRMSD -1
REMARK  Name = 301
REMARK  5 active torsions:
REMARK  status: ('A' for Active; 'I' for Inactive)
REMARK    1  A    between atoms: C_3  and  O_4
REMARK    2  A    between atoms: C_5  and  C_17
REMARK    3  A    between atoms: C_15  and  C_20
REMARK    4  A    between atoms: C_15  and  C_23
REMARK    5  A    between atoms: C_16  and  C_17
REMARK                            x       y       z     vdW  Elec       q    Type
REMARK                         _______ _______ _______ _____ _____    ______ ____
ROOT
ATOM      1  C   UNL     1      35.077  -1.555  26.266  0.00  0.00    -0.024 A 
ATOM      2  C   UNL     1      36.423  -1.840  26.500  0.00  0.00    +0.000 A 
ATOM      3  C   UNL     1      37.007  -1.522  27.727  0.00  0.00    +0.074 A 
ATOM      4  C   UNL     1      36.234  -0.879  28.699  0.00  0.00    +0.008 A 
ATOM      5  C   UNL     1      34.886  -0.584  28.461  0.00  0.00    -0.049 A 
ATOM      6  C   UNL     1      34.134   0.213  29.534  0.00  0.00    +0.058 C 
ATOM      7  C   UNL     1      32.770   0.726  29.015  0.00  0.00    +0.018 C 
ATOM      8  C   UNL     1      32.011  -0.453  28.357  0.00  0.00    +0.003 C 
ATOM      9  C   UNL     1      30.478  -0.205  28.150  0.00  0.00    +0.012 C 
ATOM     10  C   UNL     1      29.791  -1.488  27.565  0.00  0.00    +0.024 C 
ATOM     11  C   UNL     1      29.719  -2.670  28.586  0.00  0.00    -0.014 C 
ATOM     12  C   UNL     1      30.553  -1.937  26.279  0.00  0.00    -0.011 C 
ATOM     13  C   UNL     1      32.081  -2.143  26.487  0.00  0.00    +0.010 C 
ATOM     14  C   UNL     1      32.747  -0.856  27.048  0.00  0.00    +0.030 C 
ATOM     15  C   UNL     1      34.269  -1.004  27.272  0.00  0.00    -0.048 A 
ENDROOT
BRANCH  10  16
ATOM     16  C   UNL     1      28.342  -1.193  27.202  0.00  0.00    +0.109 C 
ATOM     17  N   UNL     1      27.415  -1.023  28.089  0.00  0.00    -0.296 N 
ATOM     18  H   UNL     1      27.560  -1.071  29.109  0.00  0.00    +0.187 HD
ATOM     19  C   UNL     1      26.132  -0.748  27.481  0.00  0.00    +0.156 C 
ATOM     20  C   UNL     1      26.563  -0.800  25.981  0.00  0.00    +0.150 C 
ATOM     21  N   UNL     1      27.982  -1.095  25.991  0.00  0.00    -0.273 NA
ENDBRANCH  10  16
BRANCH   3  22
ATOM     22  O   UNL     1      38.348  -1.847  27.953  0.00  0.00    -0.339 OA
ATOM     23  H   UNL     1      38.669  -1.613  28.817  0.00  0.00    +0.246 HD
ENDBRANCH   3  22
BRANCH   9  24
ATOM     24  C   UNL     1      30.151   1.076  27.316  0.00  0.00    +0.183 C 
BRANCH  24  25
ATOM     25  C   UNL     1      29.216   1.963  27.996  0.00  0.00    +0.089 C 
ATOM     26  N   UNL     1      28.471   2.666  28.536  0.00  0.00    -0.304 NA
ENDBRANCH  24  25
ENDBRANCH   9  24
TORSDOF 4
ENDMDL
MODEL 9
REMARK minimizedAffinity -5.14211512
REMARK minimizedRMSD -1
REMARK  Name = 301
REMARK  5 active torsions:
REMARK  status: ('A' for Active; 'I' for Inactive)
REMARK    1  A    between atoms: C_3  and  O_4
REMARK    2  A    between atoms: C_5  and  C_17
REMARK    3  A    between atoms: C_15  and  C_20
REMARK    4  A    between atoms: C_15  and  C_23
REMARK    5  A    between atoms: C_16  and  C_17
REMARK                            x       y       z     vdW  Elec       q    Type
REMARK                         _______ _______ _______ _____ _____    ______ ____
ROOT
ATOM      1  C   UNL     1      32.660  -1.811  22.700  0.00  0.00    -0.024 A 
ATOM      2  C   UNL     1      32.320  -2.281  23.971  0.00  0.00    +0.000 A 
ATOM      3  C   UNL     1      32.326  -3.650  24.240  0.00  0.00    +0.074 A 
ATOM      4  C   UNL     1      32.637  -4.542  23.208  0.00  0.00    +0.008 A 
ATOM      5  C   UNL     1      32.968  -4.071  21.931  0.00  0.00    -0.049 A 
ATOM      6  C   UNL     1      33.196  -5.113  20.830  0.00  0.00    +0.058 C 
ATOM      7  C   UNL     1      33.249  -4.461  19.427  0.00  0.00    +0.018 C 
ATOM      8  C   UNL     1      34.227  -3.261  19.471  0.00  0.00    +0.003 C 
ATOM      9  C   UNL     1      34.698  -2.753  18.067  0.00  0.00    +0.012 C 
ATOM     10  C   UNL     1      35.752  -1.603  18.225  0.00  0.00    +0.024 C 
ATOM     11  C   UNL     1      37.125  -2.096  18.787  0.00  0.00    -0.014 C 
ATOM     12  C   UNL     1      35.163  -0.492  19.151  0.00  0.00    -0.011 C 
ATOM     13  C   UNL     1      34.663  -1.013  20.528  0.00  0.00    +0.010 C 
ATOM     14  C   UNL     1      33.606  -2.138  20.351  0.00  0.00    +0.030 C 
ATOM     15  C   UNL     1      33.073  -2.693  21.691  0.00  0.00    -0.048 A 
ENDROOT
BRANCH  10  16
ATOM     16  C   UNL     1      36.079  -0.993  16.869  0.00  0.00    +0.109 C 
ATOM     17  N   UNL     1      36.599  -1.673  15.899  0.00  0.00    -0.296 N 
ATOM     18  H   UNL     1      36.843  -2.674  15.946  0.00  0.00    +0.187 HD
ATOM     19  C   UNL     1      36.801  -0.861  14.720  0.00  0.00    +0.156 C 
ATOM     20  C   UNL     1      36.249   0.493  15.265  0.00  0.00    +0.150 C 
ATOM     21  N   UNL     1      35.842   0.229  16.631  0.00  0.00    -0.273 NA
ENDBRANCH  10  16
BRANCH   3  22
ATOM     22  O   UNL     1      32.015  -4.097  25.528  0.00  0.00    -0.339 OA
ATOM     23  H   UNL     1      32.056  -5.041  25.636  0.00  0.00    +0.246 HD
ENDBRANCH   3  22
BRANCH   9  24
ATOM     24  C   UNL     1      33.525  -2.357  17.112  0.00  0.00    +0.183 C 
BRANCH  24  25
ATOM     25  C   UNL     1      33.549  -3.100  15.858  0.00  0.00    +0.089 C 
ATOM     26  N   UNL     1      33.570  -3.691  14.862  0.00  0.00    -0.304 NA
ENDBRANCH  24  25
ENDBRANCH   9  24
TORSDOF 4
ENDMDL
MODEL 10
REMARK minimizedAffinity -4.44237995
REMARK minimizedRMSD -1
REMARK  Name = 301
REMARK  5 active torsions:
REMARK  status: ('A' for Active; 'I' for Inactive)
REMARK    1  A    between atoms: C_3  and  O_4
REMARK    2  A    between atoms: C_5  and  C_17
REMARK    3  A    between atoms: C_15  and  C_20
REMARK    4  A    between atoms: C_15  and  C_23
REMARK    5  A    between atoms: C_16  and  C_17
REMARK                            x       y       z     vdW  Elec       q    Type
REMARK                         _______ _______ _______ _____ _____    ______ ____
ROOT
ATOM      1  C   UNL     1      33.294   1.436  28.787  0.00  0.00    -0.024 A 
ATOM      2  C   UNL     1      34.596   1.912  28.618  0.00  0.00    +0.000 A 
ATOM      3  C   UNL     1      35.365   1.490  27.532  0.00  0.00    +0.074 A 
ATOM      4  C   UNL     1      34.825   0.553  26.644  0.00  0.00    +0.008 A 
ATOM      5  C   UNL     1      33.523   0.068  26.820  0.00  0.00    -0.049 A 
ATOM      6  C   UNL     1      33.042  -1.031  25.865  0.00  0.00    +0.058 C 
ATOM      7  C   UNL     1      31.725  -1.680  26.357  0.00  0.00    +0.018 C 
ATOM      8  C   UNL     1      30.714  -0.558  26.701  0.00  0.00    +0.003 C 
ATOM      9  C   UNL     1      29.228  -1.036  26.821  0.00  0.00    +0.012 C 
ATOM     10  C   UNL     1      28.279   0.186  27.079  0.00  0.00    +0.024 C 
ATOM     11  C   UNL     1      28.140   1.132  25.842  0.00  0.00    -0.014 C 
ATOM     12  C   UNL     1      28.802   0.990  28.311  0.00  0.00    -0.011 C 
ATOM     13  C   UNL     1      30.290   1.426  28.199  0.00  0.00    +0.010 C 
ATOM     14  C   UNL     1      31.217   0.201  27.962  0.00  0.00    +0.030 C 
ATOM     15  C   UNL     1      32.710   0.577  27.845  0.00  0.00    -0.048 A 
ENDROOT
BRANCH  10  16
ATOM     16  C   UNL     1      26.863  -0.295  27.368  0.00  0.00    +0.109 C 
ATOM     17  N   UNL     1      25.851   0.009  26.621  0.00  0.00    -0.296 N 
ATOM     18  H   UNL     1      25.899   0.597  25.775  0.00  0.00    +0.187 HD
ATOM     19  C   UNL     1      24.625  -0.581  27.111  0.00  0.00    +0.156 C 
ATOM     20  C   UNL     1      25.199  -1.324  28.358  0.00  0.00    +0.150 C 
ATOM     21  N   UNL     1      26.619  -1.033  28.369  0.00  0.00    -0.273 NA
ENDBRANCH  10  16
BRANCH   3  22
ATOM     22  O   UNL     1      36.653   2.005  27.363  0.00  0.00    -0.339 OA
ATOM     23  H   UNL     1      37.107   1.680  26.593  0.00  0.00    +0.246 HD
ENDBRANCH   3  22
BRANCH   9  24
ATOM     24  C   UNL     1      29.014  -2.184  27.861  0.00  0.00    +0.183 C 
BRANCH  24  25
ATOM     25  C   UNL     1      28.343  -3.342  27.285  0.00  0.00    +0.089 C 
ATOM     26  N   UNL     1      27.810  -4.264  26.829  0.00  0.00    -0.304 NA
ENDBRANCH  24  25
ENDBRANCH   9  24
TORSDOF 4
ENDMDL
MODEL 11
REMARK minimizedAffinity -4.29400158
REMARK minimizedRMSD -1
REMARK  Name = 301
REMARK  5 active torsions:
REMARK  status: ('A' for Active; 'I' for Inactive)
REMARK    1  A    between atoms: C_3  and  O_4
REMARK    2  A    between atoms: C_5  and  C_17
REMARK    3  A    between atoms: C_15  and  C_20
REMARK    4  A    between atoms: C_15  and  C_23
REMARK    5  A    between atoms: C_16  and  C_17
REMARK                            x       y       z     vdW  Elec       q    Type
REMARK                         _______ _______ _______ _____ _____    ______ ____
ROOT
ATOM      1  C   UNL     1      29.734  -0.035  26.481  0.00  0.00    -0.024 A 
ATOM      2  C   UNL     1      28.500   0.611  26.386  0.00  0.00    +0.000 A 
ATOM      3  C   UNL     1      28.082   1.482  27.394  0.00  0.00    +0.074 A 
ATOM      4  C   UNL     1      28.900   1.663  28.514  0.00  0.00    +0.008 A 
ATOM      5  C   UNL     1      30.133   1.007  28.614  0.00  0.00    -0.049 A 
ATOM      6  C   UNL     1      30.923   1.177  29.917  0.00  0.00    +0.058 C 
ATOM      7  C   UNL     1      32.095   0.171  30.012  0.00  0.00    +0.018 C 
ATOM      8  C   UNL     1      32.902   0.221  28.691  0.00  0.00    +0.003 C 
ATOM      9  C   UNL     1      34.328  -0.422  28.775  0.00  0.00    +0.012 C 
ATOM     10  C   UNL     1      35.093  -0.238  27.419  0.00  0.00    +0.024 C 
ATOM     11  C   UNL     1      35.502   1.244  27.137  0.00  0.00    -0.014 C 
ATOM     12  C   UNL     1      34.207  -0.779  26.253  0.00  0.00    -0.011 C 
ATOM     13  C   UNL     1      32.780  -0.162  26.201  0.00  0.00    +0.010 C 
ATOM     14  C   UNL     1      32.031  -0.372  27.547  0.00  0.00    +0.030 C 
ATOM     15  C   UNL     1      30.604   0.221  27.551  0.00  0.00    -0.048 A 
ENDROOT
BRANCH  10  16
ATOM     16  C   UNL     1      36.405  -1.011  27.441  0.00  0.00    +0.109 C 
ATOM     17  N   UNL     1      37.001  -1.418  26.367  0.00  0.00    -0.296 N 
ATOM     18  H   UNL     1      36.654  -1.266  25.408  0.00  0.00    +0.187 HD
ATOM     19  C   UNL     1      38.230  -2.117  26.666  0.00  0.00    +0.156 C 
ATOM     20  C   UNL     1      38.196  -2.006  28.223  0.00  0.00    +0.150 C 
ATOM     21  N   UNL     1      36.979  -1.285  28.538  0.00  0.00    -0.273 NA
ENDBRANCH  10  16
BRANCH   3  22
ATOM     22  O   UNL     1      26.858   2.144  27.263  0.00  0.00    -0.339 OA
ATOM     23  H   UNL     1      26.651   2.731  27.982  0.00  0.00    +0.246 HD
ENDBRANCH   3  22
BRANCH   9  24
ATOM     24  C   UNL     1      34.323  -1.910  29.257  0.00  0.00    +0.183 C 
BRANCH  24  25
ATOM     25  C   UNL     1      33.518  -2.772  28.402  0.00  0.00    +0.089 C 
ATOM     26  N   UNL     1      32.877  -3.457  27.723  0.00  0.00    -0.304 NA
ENDBRANCH  24  25
ENDBRANCH   9  24
TORSDOF 4
ENDMDL
MODEL 12
REMARK minimizedAffinity -4.24088287
REMARK minimizedRMSD -1
REMARK  Name = 301
REMARK  5 active torsions:
REMARK  status: ('A' for Active; 'I' for Inactive)
REMARK    1  A    between atoms: C_3  and  O_4
REMARK    2  A    between atoms: C_5  and  C_17
REMARK    3  A    between atoms: C_15  and  C_20
REMARK    4  A    between atoms: C_15  and  C_23
REMARK    5  A    between atoms: C_16  and  C_17
REMARK                            x       y       z     vdW  Elec       q    Type
REMARK                         _______ _______ _______ _____ _____    ______ ____
ROOT
ATOM      1  C   UNL     1      35.908   1.156  16.140  0.00  0.00    -0.024 A 
ATOM      2  C   UNL     1      36.938   1.731  15.392  0.00  0.00    +0.000 A 
ATOM      3  C   UNL     1      38.268   1.408  15.662  0.00  0.00    +0.074 A 
ATOM      4  C   UNL     1      38.552   0.534  16.717  0.00  0.00    +0.008 A 
ATOM      5  C   UNL     1      37.520  -0.034  17.474  0.00  0.00    -0.049 A 
ATOM      6  C   UNL     1      37.917  -0.899  18.676  0.00  0.00    +0.058 C 
ATOM      7  C   UNL     1      36.703  -1.202  19.588  0.00  0.00    +0.018 C 
ATOM      8  C   UNL     1      35.535  -1.715  18.709  0.00  0.00    +0.003 C 
ATOM      9  C   UNL     1      34.395  -2.439  19.501  0.00  0.00    +0.012 C 
ATOM     10  C   UNL     1      33.312  -2.998  18.514  0.00  0.00    +0.024 C 
ATOM     11  C   UNL     1      33.823  -4.200  17.655  0.00  0.00    -0.014 C 
ATOM     12  C   UNL     1      32.822  -1.844  17.583  0.00  0.00    -0.011 C 
ATOM     13  C   UNL     1      33.966  -1.107  16.831  0.00  0.00    +0.010 C 
ATOM     14  C   UNL     1      35.019  -0.544  17.826  0.00  0.00    +0.030 C 
ATOM     15  C   UNL     1      36.180   0.202  17.131  0.00  0.00    -0.048 A 
ENDROOT
BRANCH  10  16
ATOM     16  C   UNL     1      32.122  -3.547  19.289  0.00  0.00    +0.109 C 
ATOM     17  N   UNL     1      32.216  -4.541  20.113  0.00  0.00    -0.296 N 
ATOM     18  H   UNL     1      33.086  -5.052  20.321  0.00  0.00    +0.187 HD
ATOM     19  C   UNL     1      30.943  -4.856  20.722  0.00  0.00    +0.156 C 
ATOM     20  C   UNL     1      30.069  -3.765  20.028  0.00  0.00    +0.150 C 
ATOM     21  N   UNL     1      30.969  -3.035  19.159  0.00  0.00    -0.273 NA
ENDBRANCH  10  16
BRANCH   3  22
ATOM     22  O   UNL     1      39.282   1.968  14.878  0.00  0.00    -0.339 OA
ATOM     23  H   UNL     1      40.159   1.687  15.114  0.00  0.00    +0.246 HD
ENDBRANCH   3  22
BRANCH   9  24
ATOM     24  C   UNL     1      33.768  -1.572  20.641  0.00  0.00    +0.183 C 
BRANCH  24  25
ATOM     25  C   UNL     1      33.375  -2.367  21.798  0.00  0.00    +0.089 C 
ATOM     26  N   UNL     1      33.062  -2.998  22.717  0.00  0.00    -0.304 NA
ENDBRANCH  24  25
ENDBRANCH   9  24
TORSDOF 4
ENDMDL
MODEL 13
REMARK minimizedAffinity -4.01657438
REMARK minimizedRMSD -1
REMARK  Name = 301
REMARK  5 active torsions:
REMARK  status: ('A' for Active; 'I' for Inactive)
REMARK    1  A    between atoms: C_3  and  O_4
REMARK    2  A    between atoms: C_5  and  C_17
REMARK    3  A    between atoms: C_15  and  C_20
REMARK    4  A    between atoms: C_15  and  C_23
REMARK    5  A    between atoms: C_16  and  C_17
REMARK                            x       y       z     vdW  Elec       q    Type
REMARK                         _______ _______ _______ _____ _____    ______ ____
ROOT
ATOM      1  C   UNL     1      32.905  -4.167  23.761  0.00  0.00    -0.024 A 
ATOM      2  C   UNL     1      32.978  -4.830  22.534  0.00  0.00    +0.000 A 
ATOM      3  C   UNL     1      32.387  -4.276  21.398  0.00  0.00    +0.074 A 
ATOM      4  C   UNL     1      31.688  -3.071  21.518  0.00  0.00    +0.008 A 
ATOM      5  C   UNL     1      31.606  -2.411  22.750  0.00  0.00    -0.049 A 
ATOM      6  C   UNL     1      30.737  -1.149  22.822  0.00  0.00    +0.058 C 
ATOM      7  C   UNL     1      30.491  -0.705  24.284  0.00  0.00    +0.018 C 
ATOM      8  C   UNL     1      31.850  -0.665  25.028  0.00  0.00    +0.003 C 
ATOM      9  C   UNL     1      31.832   0.140  26.371  0.00  0.00    +0.012 C 
ATOM     10  C   UNL     1      33.270   0.197  26.994  0.00  0.00    +0.024 C 
ATOM     11  C   UNL     1      34.261   1.091  26.179  0.00  0.00    -0.014 C 
ATOM     12  C   UNL     1      33.834  -1.253  27.116  0.00  0.00    -0.011 C 
ATOM     13  C   UNL     1      33.812  -2.056  25.784  0.00  0.00    +0.010 C 
ATOM     14  C   UNL     1      32.376  -2.119  25.192  0.00  0.00    +0.030 C 
ATOM     15  C   UNL     1      32.295  -2.908  23.867  0.00  0.00    -0.048 A 
ENDROOT
BRANCH  10  16
ATOM     16  C   UNL     1      33.222   0.826  28.380  0.00  0.00    +0.109 C 
ATOM     17  N   UNL     1      32.148   1.346  28.880  0.00  0.00    -0.296 N 
ATOM     18  H   UNL     1      31.236   1.389  28.400  0.00  0.00    +0.187 HD
ATOM     19  C   UNL     1      32.370   1.866  30.210  0.00  0.00    +0.156 C 
ATOM     20  C   UNL     1      33.881   1.503  30.359  0.00  0.00    +0.150 C 
ATOM     21  N   UNL     1      34.254   0.859  29.115  0.00  0.00    -0.273 NA
ENDBRANCH  10  16
BRANCH   3  22
ATOM     22  O   UNL     1      32.501  -4.941  20.173  0.00  0.00    -0.339 OA
ATOM     23  H   UNL     1      32.086  -4.493  19.444  0.00  0.00    +0.246 HD
ENDBRANCH   3  22
BRANCH   9  24
ATOM     24  C   UNL     1      30.761  -0.361  27.394  0.00  0.00    +0.183 C 
BRANCH  24  25
ATOM     25  C   UNL     1      29.479   0.314  27.238  0.00  0.00    +0.089 C 
ATOM     26  N   UNL     1      28.460   0.850  27.111  0.00  0.00    -0.304 NA
ENDBRANCH  24  25
ENDBRANCH   9  24
TORSDOF 4
ENDMDL
MODEL 14
REMARK minimizedAffinity -3.74963856
REMARK minimizedRMSD -1
REMARK  Name = 301
REMARK  5 active torsions:
REMARK  status: ('A' for Active; 'I' for Inactive)
REMARK    1  A    between atoms: C_3  and  O_4
REMARK    2  A    between atoms: C_5  and  C_17
REMARK    3  A    between atoms: C_15  and  C_20
REMARK    4  A    between atoms: C_15  and  C_23
REMARK    5  A    between atoms: C_16  and  C_17
REMARK                            x       y       z     vdW  Elec       q    Type
REMARK                         _______ _______ _______ _____ _____    ______ ____
ROOT
ATOM      1  C   UNL     1      35.446  -2.431  26.336  0.00  0.00    -0.024 A 
ATOM      2  C   UNL     1      36.835  -2.406  26.478  0.00  0.00    +0.000 A 
ATOM      3  C   UNL     1      37.477  -1.247  26.915  0.00  0.00    +0.074 A 
ATOM      4  C   UNL     1      36.712  -0.103  27.167  0.00  0.00    +0.008 A 
ATOM      5  C   UNL     1      35.320  -0.125  27.014  0.00  0.00    -0.049 A 
ATOM      6  C   UNL     1      34.565   1.195  27.210  0.00  0.00    +0.058 C 
ATOM      7  C   UNL     1      33.101   1.095  26.717  0.00  0.00    +0.018 C 
ATOM      8  C   UNL     1      32.457  -0.178  27.322  0.00  0.00    +0.003 C 
ATOM      9  C   UNL     1      30.893  -0.209  27.256  0.00  0.00    +0.012 C 
ATOM     10  C   UNL     1      30.340  -1.490  27.973  0.00  0.00    +0.024 C 
ATOM     11  C   UNL     1      30.525  -1.456  29.525  0.00  0.00    -0.014 C 
ATOM     12  C   UNL     1      31.039  -2.752  27.378  0.00  0.00    -0.011 C 
ATOM     13  C   UNL     1      32.593  -2.694  27.414  0.00  0.00    +0.010 C 
ATOM     14  C   UNL     1      33.122  -1.429  26.682  0.00  0.00    +0.030 C 
ATOM     15  C   UNL     1      34.663  -1.321  26.685  0.00  0.00    -0.048 A 
ENDROOT
BRANCH  10  16
ATOM     16  C   UNL     1      28.837  -1.610  27.758  0.00  0.00    +0.109 C 
ATOM     17  N   UNL     1      28.023  -0.617  27.915  0.00  0.00    -0.296 N 
ATOM     18  H   UNL     1      28.302   0.335  28.197  0.00  0.00    +0.187 HD
ATOM     19  C   UNL     1      26.654  -0.995  27.641  0.00  0.00    +0.156 C 
ATOM     20  C   UNL     1      26.890  -2.494  27.275  0.00  0.00    +0.150 C 
ATOM     21  N   UNL     1      28.317  -2.710  27.404  0.00  0.00    -0.273 NA
ENDBRANCH  10  16
BRANCH   3  22
ATOM     22  O   UNL     1      38.865  -1.254  27.084  0.00  0.00    -0.339 OA
ATOM     23  H   UNL     1      39.226  -0.433  27.398  0.00  0.00    +0.246 HD
ENDBRANCH   3  22
BRANCH   9  24
ATOM     24  C   UNL     1      30.317  -0.043  25.811  0.00  0.00    +0.183 C 
BRANCH  24  25
ATOM     25  C   UNL     1      30.985  -0.902  24.841  0.00  0.00    +0.089 C 
ATOM     26  N   UNL     1      31.515  -1.586  24.072  0.00  0.00    -0.304 NA
ENDBRANCH  24  25
ENDBRANCH   9  24
TORSDOF 4
ENDMDL
MODEL 15
REMARK minimizedAffinity -3.64751315
REMARK minimizedRMSD -1
REMARK  Name = 301
REMARK  5 active torsions:
REMARK  status: ('A' for Active; 'I' for Inactive)
REMARK    1  A    between atoms: C_3  and  O_4
REMARK    2  A    between atoms: C_5  and  C_17
REMARK    3  A    between atoms: C_15  and  C_20
REMARK    4  A    between atoms: C_15  and  C_23
REMARK    5  A    between atoms: C_16  and  C_17
REMARK                            x       y       z     vdW  Elec       q    Type
REMARK                         _______ _______ _______ _____ _____    ______ ____
ROOT
ATOM      1  C   UNL     1      30.374   0.217  28.359  0.00  0.00    -0.024 A 
ATOM      2  C   UNL     1      30.427   1.071  29.462  0.00  0.00    +0.000 A 
ATOM      3  C   UNL     1      31.647   1.353  30.077  0.00  0.00    +0.074 A 
ATOM      4  C   UNL     1      32.806   0.735  29.596  0.00  0.00    +0.008 A 
ATOM      5  C   UNL     1      32.752  -0.130  28.496  0.00  0.00    -0.049 A 
ATOM      6  C   UNL     1      34.046  -0.848  28.094  0.00  0.00    +0.058 C 
ATOM      7  C   UNL     1      33.779  -1.984  27.079  0.00  0.00    +0.018 C 
ATOM      8  C   UNL     1      32.898  -1.431  25.931  0.00  0.00    +0.003 C 
ATOM      9  C   UNL     1      32.876  -2.320  24.642  0.00  0.00    +0.012 C 
ATOM     10  C   UNL     1      32.034  -1.628  23.514  0.00  0.00    +0.024 C 
ATOM     11  C   UNL     1      32.720  -0.351  22.927  0.00  0.00    -0.014 C 
ATOM     12  C   UNL     1      30.623  -1.266  24.076  0.00  0.00    -0.011 C 
ATOM     13  C   UNL     1      30.657  -0.416  25.378  0.00  0.00    +0.010 C 
ATOM     14  C   UNL     1      31.479  -1.126  26.489  0.00  0.00    +0.030 C 
ATOM     15  C   UNL     1      31.544  -0.325  27.808  0.00  0.00    -0.048 A 
ENDROOT
BRANCH  10  16
ATOM     16  C   UNL     1      31.867  -2.566  22.326  0.00  0.00    +0.109 C 
ATOM     17  N   UNL     1      32.863  -3.163  21.756  0.00  0.00    -0.296 N 
ATOM     18  H   UNL     1      33.849  -3.065  22.041  0.00  0.00    +0.187 HD
ATOM     19  C   UNL     1      32.432  -4.002  20.661  0.00  0.00    +0.156 C 
ATOM     20  C   UNL     1      30.896  -3.735  20.745  0.00  0.00    +0.150 C 
ATOM     21  N   UNL     1      30.719  -2.807  21.845  0.00  0.00    -0.273 NA
ENDBRANCH  10  16
BRANCH   3  22
ATOM     22  O   UNL     1      31.682   2.238  31.159  0.00  0.00    -0.339 OA
ATOM     23  H   UNL     1      32.551   2.390  31.514  0.00  0.00    +0.246 HD
ENDBRANCH   3  22
BRANCH   9  24
ATOM     24  C   UNL     1      32.425  -3.795  24.898  0.00  0.00    +0.183 C 
BRANCH  24  25
ATOM     25  C   UNL     1      33.013  -4.357  26.108  0.00  0.00    +0.089 C 
ATOM     26  N   UNL     1      33.479  -4.804  27.069  0.00  0.00    -0.304 NA
ENDBRANCH  24  25
ENDBRANCH   9  24
TORSDOF 4
ENDMDL
MODEL 16
REMARK minimizedAffinity -3.43864632
REMARK minimizedRMSD -1
REMARK  Name = 301
REMARK  5 active torsions:
REMARK  status: ('A' for Active; 'I' for Inactive)
REMARK    1  A    between atoms: C_3  and  O_4
REMARK    2  A    between atoms: C_5  and  C_17
REMARK    3  A    between atoms: C_15  and  C_20
REMARK    4  A    between atoms: C_15  and  C_23
REMARK    5  A    between atoms: C_16  and  C_17
REMARK                            x       y       z     vdW  Elec       q    Type
REMARK                         _______ _______ _______ _____ _____    ______ ____
ROOT
ATOM      1  C   UNL     1      36.858  -1.474  26.283  0.00  0.00    -0.024 A 
ATOM      2  C   UNL     1      38.134  -2.024  26.422  0.00  0.00    +0.000 A 
ATOM      3  C   UNL     1      38.660  -2.269  27.691  0.00  0.00    +0.074 A 
ATOM      4  C   UNL     1      37.906  -1.918  28.816  0.00  0.00    +0.008 A 
ATOM      5  C   UNL     1      36.630  -1.357  28.676  0.00  0.00    -0.049 A 
ATOM      6  C   UNL     1      35.911  -0.905  29.952  0.00  0.00    +0.058 C 
ATOM      7  C   UNL     1      34.669  -0.039  29.634  0.00  0.00    +0.018 C 
ATOM      8  C   UNL     1      33.814  -0.767  28.566  0.00  0.00    +0.003 C 
ATOM      9  C   UNL     1      32.347  -0.234  28.434  0.00  0.00    +0.012 C 
ATOM     10  C   UNL     1      31.543  -1.094  27.398  0.00  0.00    +0.024 C 
ATOM     11  C   UNL     1      31.240  -2.543  27.902  0.00  0.00    -0.014 C 
ATOM     12  C   UNL     1      32.336  -1.151  26.054  0.00  0.00    -0.011 C 
ATOM     13  C   UNL     1      33.803  -1.645  26.203  0.00  0.00    +0.010 C 
ATOM     14  C   UNL     1      34.588  -0.769  27.218  0.00  0.00    +0.030 C 
ATOM     15  C   UNL     1      36.056  -1.215  27.403  0.00  0.00    -0.048 A 
ENDROOT
BRANCH  10  16
ATOM     16  C   UNL     1      30.177  -0.473  27.140  0.00  0.00    +0.109 C 
ATOM     17  N   UNL     1      29.239  -0.443  28.030  0.00  0.00    -0.296 N 
ATOM     18  H   UNL     1      29.318  -0.831  28.982  0.00  0.00    +0.187 HD
ATOM     19  C   UNL     1      28.048   0.209  27.534  0.00  0.00    +0.156 C 
ATOM     20  C   UNL     1      28.548   0.561  26.098  0.00  0.00    +0.150 C 
ATOM     21  N   UNL     1      29.904   0.055  26.021  0.00  0.00    -0.273 NA
ENDBRANCH  10  16
BRANCH   3  22
ATOM     22  O   UNL     1      39.926  -2.851  27.808  0.00  0.00    -0.339 OA
ATOM     23  H   UNL     1      40.207  -3.001  28.704  0.00  0.00    +0.246 HD
ENDBRANCH   3  22
BRANCH   9  24
ATOM     24  C   UNL     1      32.256   1.298  28.131  0.00  0.00    +0.183 C 
BRANCH  24  25
ATOM     25  C   UNL     1      33.562   1.943  28.115  0.00  0.00    +0.089 C 
ATOM     26  N   UNL     1      34.601   2.456  28.100  0.00  0.00    -0.304 NA
ENDBRANCH  24  25
ENDBRANCH   9  24
TORSDOF 4
ENDMDL
MODEL 17
REMARK minimizedAffinity -2.64645171
REMARK minimizedRMSD -1
REMARK  Name = 301
REMARK  5 active torsions:
REMARK  status: ('A' for Active; 'I' for Inactive)
REMARK    1  A    between atoms: C_3  and  O_4
REMARK    2  A    between atoms: C_5  and  C_17
REMARK    3  A    between atoms: C_15  and  C_20
REMARK    4  A    between atoms: C_15  and  C_23
REMARK    5  A    between atoms: C_16  and  C_17
REMARK                            x       y       z     vdW  Elec       q    Type
REMARK                         _______ _______ _______ _____ _____    ______ ____
ROOT
ATOM      1  C   UNL     1      33.408   1.092  28.971  0.00  0.00    -0.024 A 
ATOM      2  C   UNL     1      33.336   1.668  30.242  0.00  0.00    +0.000 A 
ATOM      3  C   UNL     1      32.114   1.748  30.910  0.00  0.00    +0.074 A 
ATOM      4  C   UNL     1      30.961   1.282  30.271  0.00  0.00    +0.008 A 
ATOM      5  C   UNL     1      31.031   0.714  28.993  0.00  0.00    -0.049 A 
ATOM      6  C   UNL     1      29.710   0.321  28.319  0.00  0.00    +0.058 C 
ATOM      7  C   UNL     1      29.907  -0.000  26.818  0.00  0.00    +0.018 C 
ATOM      8  C   UNL     1      31.092  -0.988  26.670  0.00  0.00    +0.003 C 
ATOM      9  C   UNL     1      31.162  -1.717  25.287  0.00  0.00    +0.012 C 
ATOM     10  C   UNL     1      32.336  -2.757  25.275  0.00  0.00    +0.024 C 
ATOM     11  C   UNL     1      32.075  -3.993  26.196  0.00  0.00    -0.014 C 
ATOM     12  C   UNL     1      33.658  -2.043  25.698  0.00  0.00    -0.011 C 
ATOM     13  C   UNL     1      33.565  -1.290  27.056  0.00  0.00    +0.010 C 
ATOM     14  C   UNL     1      32.410  -0.251  27.041  0.00  0.00    +0.030 C 
ATOM     15  C   UNL     1      32.274   0.530  28.368  0.00  0.00    -0.048 A 
ENDROOT
BRANCH  10  16
ATOM     16  C   UNL     1      32.514  -3.339  23.878  0.00  0.00    +0.109 C 
ATOM     17  N   UNL     1      32.949  -2.644  22.877  0.00  0.00    -0.296 N 
ATOM     18  H   UNL     1      33.212  -1.648  22.921  0.00  0.00    +0.187 HD
ATOM     19  C   UNL     1      33.033  -3.435  21.670  0.00  0.00    +0.156 C 
ATOM     20  C   UNL     1      32.526  -4.797  22.241  0.00  0.00    +0.150 C 
ATOM     21  N   UNL     1      32.242  -4.554  23.641  0.00  0.00    -0.273 NA
ENDBRANCH  10  16
BRANCH   3  22
ATOM     22  O   UNL     1      32.071   2.297  32.196  0.00  0.00    -0.339 OA
ATOM     23  H   UNL     1      31.206   2.303  32.590  0.00  0.00    +0.246 HD
ENDBRANCH   3  22
BRANCH   9  24
ATOM     24  C   UNL     1      31.217  -0.746  24.062  0.00  0.00    +0.183 C 
BRANCH  24  25
ATOM     25  C   UNL     1      32.209   0.308  24.229  0.00  0.00    +0.089 C 
ATOM     26  N   UNL     1      32.998   1.145  24.359  0.00  0.00    -0.304 NA
ENDBRANCH  24  25
ENDBRANCH   9  24
TORSDOF 4
ENDMDL
MODEL 18
REMARK minimizedAffinity -2.34486079
REMARK minimizedRMSD -1
REMARK  Name = 301
REMARK  5 active torsions:
REMARK  status: ('A' for Active; 'I' for Inactive)
REMARK    1  A    between atoms: C_3  and  O_4
REMARK    2  A    between atoms: C_5  and  C_17
REMARK    3  A    between atoms: C_15  and  C_20
REMARK    4  A    between atoms: C_15  and  C_23
REMARK    5  A    between atoms: C_16  and  C_17
REMARK                            x       y       z     vdW  Elec       q    Type
REMARK                         _______ _______ _______ _____ _____    ______ ____
ROOT
ATOM      1  C   UNL     1      35.860  -0.854  29.017  0.00  0.00    -0.024 A 
ATOM      2  C   UNL     1      37.208  -1.186  28.869  0.00  0.00    +0.000 A 
ATOM      3  C   UNL     1      37.650  -1.833  27.714  0.00  0.00    +0.074 A 
ATOM      4  C   UNL     1      36.717  -2.179  26.732  0.00  0.00    +0.008 A 
ATOM      5  C   UNL     1      35.363  -1.855  26.886  0.00  0.00    -0.049 A 
ATOM      6  C   UNL     1      34.388  -2.358  25.814  0.00  0.00    +0.058 C 
ATOM      7  C   UNL     1      32.915  -2.198  26.260  0.00  0.00    +0.018 C 
ATOM      8  C   UNL     1      32.704  -0.753  26.778  0.00  0.00    +0.003 C 
ATOM      9  C   UNL     1      31.206  -0.312  26.883  0.00  0.00    +0.012 C 
ATOM     10  C   UNL     1      31.107   1.189  27.326  0.00  0.00    +0.024 C 
ATOM     11  C   UNL     1      31.586   2.190  26.225  0.00  0.00    -0.014 C 
ATOM     12  C   UNL     1      31.935   1.394  28.633  0.00  0.00    -0.011 C 
ATOM     13  C   UNL     1      33.412   0.917  28.529  0.00  0.00    +0.010 C 
ATOM     14  C   UNL     1      33.489  -0.577  28.109  0.00  0.00    +0.030 C 
ATOM     15  C   UNL     1      34.936  -1.105  27.992  0.00  0.00    -0.048 A 
ENDROOT
BRANCH  10  16
ATOM     16  C   UNL     1      29.656   1.567  27.596  0.00  0.00    +0.109 C 
ATOM     17  N   UNL     1      28.683   1.224  26.816  0.00  0.00    -0.296 N 
ATOM     18  H   UNL     1      28.788   0.674  25.950  0.00  0.00    +0.187 HD
ATOM     19  C   UNL     1      27.409   1.701  27.303  0.00  0.00    +0.156 C 
ATOM     20  C   UNL     1      27.903   2.423  28.597  0.00  0.00    +0.150 C 
ATOM     21  N   UNL     1      29.341   2.242  28.621  0.00  0.00    -0.273 NA
ENDBRANCH  10  16
BRANCH   3  22
ATOM     22  O   UNL     1      39.010  -2.126  27.570  0.00  0.00    -0.339 OA
ATOM     23  H   UNL     1      39.235  -2.553  26.751  0.00  0.00    +0.246 HD
ENDBRANCH   3  22
BRANCH   9  24
ATOM     24  C   UNL     1      30.330  -1.253  27.774  0.00  0.00    +0.183 C 
BRANCH  24  25
ATOM     25  C   UNL     1      29.307  -1.955  27.009  0.00  0.00    +0.089 C 
ATOM     26  N   UNL     1      28.494  -2.511  26.401  0.00  0.00    -0.304 NA
ENDBRANCH  24  25
ENDBRANCH   9  24
TORSDOF 4
ENDMDL
MODEL 19
REMARK minimizedAffinity -2.1778872
REMARK minimizedRMSD -1
REMARK  Name = 301
REMARK  5 active torsions:
REMARK  status: ('A' for Active; 'I' for Inactive)
REMARK    1  A    between atoms: C_3  and  O_4
REMARK    2  A    between atoms: C_5  and  C_17
REMARK    3  A    between atoms: C_15  and  C_20
REMARK    4  A    between atoms: C_15  and  C_23
REMARK    5  A    between atoms: C_16  and  C_17
REMARK                            x       y       z     vdW  Elec       q    Type
REMARK                         _______ _______ _______ _____ _____    ______ ____
ROOT
ATOM      1  C   UNL     1      32.880   1.192  28.140  0.00  0.00    -0.024 A 
ATOM      2  C   UNL     1      32.755   1.748  29.415  0.00  0.00    +0.000 A 
ATOM      3  C   UNL     1      31.605   1.521  30.173  0.00  0.00    +0.074 A 
ATOM      4  C   UNL     1      30.568   0.765  29.619  0.00  0.00    +0.008 A 
ATOM      5  C   UNL     1      30.688   0.215  28.336  0.00  0.00    -0.049 A 
ATOM      6  C   UNL     1      29.469  -0.514  27.760  0.00  0.00    +0.058 C 
ATOM      7  C   UNL     1      29.632  -0.796  26.247  0.00  0.00    +0.018 C 
ATOM      8  C   UNL     1      31.017  -1.448  26.008  0.00  0.00    +0.003 C 
ATOM      9  C   UNL     1      31.172  -2.155  24.619  0.00  0.00    +0.012 C 
ATOM     10  C   UNL     1      32.570  -2.858  24.516  0.00  0.00    +0.024 C 
ATOM     11  C   UNL     1      32.704  -4.105  25.449  0.00  0.00    -0.014 C 
ATOM     12  C   UNL     1      33.690  -1.822  24.844  0.00  0.00    -0.011 C 
ATOM     13  C   UNL     1      33.506  -1.098  26.208  0.00  0.00    +0.010 C 
ATOM     14  C   UNL     1      32.124  -0.391  26.284  0.00  0.00    +0.030 C 
ATOM     15  C   UNL     1      31.888   0.347  27.620  0.00  0.00    -0.048 A 
ENDROOT
BRANCH  10  16
ATOM     16  C   UNL     1      32.790  -3.395  23.108  0.00  0.00    +0.109 C 
ATOM     17  N   UNL     1      32.369  -4.557  22.724  0.00  0.00    -0.296 N 
ATOM     18  H   UNL     1      31.855  -5.223  23.320  0.00  0.00    +0.187 HD
ATOM     19  C   UNL     1      32.700  -4.819  21.342  0.00  0.00    +0.156 C 
ATOM     20  C   UNL     1      33.434  -3.481  21.014  0.00  0.00    +0.150 C 
ATOM     21  N   UNL     1      33.402  -2.706  22.238  0.00  0.00    -0.273 NA
ENDBRANCH  10  16
BRANCH   3  22
ATOM     22  O   UNL     1      31.516   2.060  31.460  0.00  0.00    -0.339 OA
ATOM     23  H   UNL     1      30.710   1.849  31.918  0.00  0.00    +0.246 HD
ENDBRANCH   3  22
BRANCH   9  24
ATOM     24  C   UNL     1      30.885  -1.221  23.398  0.00  0.00    +0.183 C 
BRANCH  24  25
ATOM     25  C   UNL     1      30.283  -1.933  22.279  0.00  0.00    +0.089 C 
ATOM     26  N   UNL     1      29.804  -2.497  21.388  0.00  0.00    -0.304 NA
ENDBRANCH  24  25
ENDBRANCH   9  24
TORSDOF 4
ENDMDL
