MODEL 1
REMARK minimizedAffinity -8.37760639
REMARK minimizedRMSD -1
REMARK  Name = scaffold
REMARK  6 active torsions:
REMARK  status: ('A' for Active; 'I' for Inactive)
REMARK    1  A    between atoms: C_3  and  O_4
REMARK    2  A    between atoms: C_5  and  C_17
REMARK    3  A    between atoms: C_15  and  C_20
REMARK    4  A    between atoms: C_15  and  C_23
REMARK    5  A    between atoms: C_16  and  C_17
REMARK    6  A    between atoms: C_23  and  O_25
REMARK                            x       y       z     vdW  Elec       q    Type
REMARK                         _______ _______ _______ _____ _____    ______ ____
ROOT
ATOM      1  C   UNL     1      27.527  -1.856  28.033  0.00  0.00    -0.024 A 
ATOM      2  C   UNL     1      26.159  -1.688  27.804  0.00  0.00    +0.000 A 
ATOM      3  C   UNL     1      25.680  -0.501  27.247  0.00  0.00    +0.074 A 
ATOM      4  C   UNL     1      26.584   0.530  26.969  0.00  0.00    +0.008 A 
ATOM      5  C   UNL     1      27.954   0.360  27.207  0.00  0.00    -0.049 A 
ATOM      6  C   UNL     1      28.874   1.562  26.985  0.00  0.00    +0.058 C 
ATOM      7  C   UNL     1      30.294   1.331  27.562  0.00  0.00    +0.018 C 
ATOM      8  C   UNL     1      30.829  -0.039  27.064  0.00  0.00    +0.000 C 
ATOM      9  C   UNL     1      32.352  -0.285  27.344  0.00  0.00    -0.004 C 
ATOM     10  C   UNL     1      32.818  -1.697  26.834  0.00  0.00    +0.006 C 
ATOM     11  C   UNL     1      32.900  -1.775  25.276  0.00  0.00    -0.039 C 
ATOM     12  C   UNL     1      31.861  -2.803  27.373  0.00  0.00    -0.032 C 
ATOM     13  C   UNL     1      30.366  -2.517  27.081  0.00  0.00    +0.006 C 
ATOM     14  C   UNL     1      29.964  -1.159  27.717  0.00  0.00    +0.030 C 
ATOM     15  C   UNL     1      28.449  -0.877  27.643  0.00  0.00    -0.048 A 
ENDROOT
BRANCH   3  16
ATOM     16  O   UNL     1      24.313  -0.369  26.986  0.00  0.00    -0.339 OA
ATOM     17  H   UNL     1      24.072   0.449  26.566  0.00  0.00    +0.246 HD
ENDBRANCH   3  16
BRANCH   9  18
ATOM     18  C   UNL     1      32.518  -0.260  28.898  0.00  0.00    +0.179 C 
BRANCH  18  19
ATOM     19  C   UNL     1      33.362   0.820  29.397  0.00  0.00    +0.089 C 
ATOM     20  N   UNL     1      34.039   1.673  29.791  0.00  0.00    -0.304 NA
ENDBRANCH  18  19
ENDBRANCH   9  18
BRANCH  10  21
ATOM     21  C   UNL     1      34.167  -2.023  27.459  0.00  0.00    +0.114 C 
BRANCH  21  22
ATOM     22  O   UNL     1      35.327  -1.488  27.172  0.00  0.00    -0.246 OA
ATOM     23  H   UNL     1      35.999  -1.880  27.717  0.00  0.00    +0.000 HD
ENDBRANCH  21  22
ENDBRANCH  10  21
TORSDOF 5
ENDMDL
MODEL 2
REMARK minimizedAffinity -8.35196781
REMARK minimizedRMSD -1
REMARK  Name = scaffold
REMARK  6 active torsions:
REMARK  status: ('A' for Active; 'I' for Inactive)
REMARK    1  A    between atoms: C_3  and  O_4
REMARK    2  A    between atoms: C_5  and  C_17
REMARK    3  A    between atoms: C_15  and  C_20
REMARK    4  A    between atoms: C_15  and  C_23
REMARK    5  A    between atoms: C_16  and  C_17
REMARK    6  A    between atoms: C_23  and  O_25
REMARK                            x       y       z     vdW  Elec       q    Type
REMARK                         _______ _______ _______ _____ _____    ______ ____
ROOT
ATOM      1  C   UNL     1      28.131   0.302  26.422  0.00  0.00    -0.024 A 
ATOM      2  C   UNL     1      26.752   0.208  26.630  0.00  0.00    +0.000 A 
ATOM      3  C   UNL     1      26.226  -0.840  27.387  0.00  0.00    +0.074 A 
ATOM      4  C   UNL     1      27.093  -1.815  27.891  0.00  0.00    +0.008 A 
ATOM      5  C   UNL     1      28.474  -1.720  27.675  0.00  0.00    -0.049 A 
ATOM      6  C   UNL     1      29.355  -2.875  28.158  0.00  0.00    +0.058 C 
ATOM      7  C   UNL     1      30.798  -2.787  27.599  0.00  0.00    +0.018 C 
ATOM      8  C   UNL     1      31.353  -1.357  27.843  0.00  0.00    +0.000 C 
ATOM      9  C   UNL     1      32.890  -1.200  27.577  0.00  0.00    -0.004 C 
ATOM     10  C   UNL     1      33.376   0.275  27.822  0.00  0.00    +0.006 C 
ATOM     11  C   UNL     1      33.409   0.651  29.338  0.00  0.00    -0.039 C 
ATOM     12  C   UNL     1      32.466   1.274  27.046  0.00  0.00    -0.032 C 
ATOM     13  C   UNL     1      30.955   1.080  27.332  0.00  0.00    +0.006 C 
ATOM     14  C   UNL     1      30.538  -0.368  26.956  0.00  0.00    +0.030 C 
ATOM     15  C   UNL     1      29.014  -0.601  27.028  0.00  0.00    -0.048 A 
ENDROOT
BRANCH   3  16
ATOM     16  O   UNL     1      24.848  -0.893  27.618  0.00  0.00    -0.339 OA
ATOM     17  H   UNL     1      24.572  -1.609  28.179  0.00  0.00    +0.246 HD
ENDBRANCH   3  16
BRANCH   9  18
ATOM     18  C   UNL     1      33.105  -1.527  26.064  0.00  0.00    +0.179 C 
BRANCH  18  19
ATOM     19  C   UNL     1      33.279  -2.946  25.773  0.00  0.00    +0.089 C 
ATOM     20  N   UNL     1      33.409  -4.074  25.545  0.00  0.00    -0.304 NA
ENDBRANCH  18  19
ENDBRANCH   9  18
BRANCH  10  21
ATOM     21  C   UNL     1      34.751   0.448  27.196  0.00  0.00    +0.114 C 
BRANCH  21  22
ATOM     22  O   UNL     1      35.423   1.561  27.043  0.00  0.00    -0.246 OA
ATOM     23  H   UNL     1      36.253   1.375  26.621  0.00  0.00    +0.000 HD
ENDBRANCH  21  22
ENDBRANCH  10  21
TORSDOF 5
ENDMDL
MODEL 3
REMARK minimizedAffinity -7.83090162
REMARK minimizedRMSD -1
REMARK  Name = scaffold
REMARK  6 active torsions:
REMARK  status: ('A' for Active; 'I' for Inactive)
REMARK    1  A    between atoms: C_3  and  O_4
REMARK    2  A    between atoms: C_5  and  C_17
REMARK    3  A    between atoms: C_15  and  C_20
REMARK    4  A    between atoms: C_15  and  C_23
REMARK    5  A    between atoms: C_16  and  C_17
REMARK    6  A    between atoms: C_23  and  O_25
REMARK                            x       y       z     vdW  Elec       q    Type
REMARK                         _______ _______ _______ _____ _____    ______ ____
ROOT
ATOM      1  C   UNL     1      28.744  -1.750  27.533  0.00  0.00    -0.024 A 
ATOM      2  C   UNL     1      27.365  -1.925  27.395  0.00  0.00    +0.000 A 
ATOM      3  C   UNL     1      26.511  -0.821  27.409  0.00  0.00    +0.074 A 
ATOM      4  C   UNL     1      27.052   0.452  27.611  0.00  0.00    +0.008 A 
ATOM      5  C   UNL     1      28.435   0.623  27.755  0.00  0.00    -0.049 A 
ATOM      6  C   UNL     1      28.953   2.026  28.082  0.00  0.00    +0.058 C 
ATOM      7  C   UNL     1      30.444   2.019  28.505  0.00  0.00    +0.018 C 
ATOM      8  C   UNL     1      31.266   1.214  27.462  0.00  0.00    +0.000 C 
ATOM      9  C   UNL     1      32.821   1.349  27.612  0.00  0.00    -0.004 C 
ATOM     10  C   UNL     1      33.587   0.492  26.539  0.00  0.00    +0.006 C 
ATOM     11  C   UNL     1      33.484   1.098  25.103  0.00  0.00    -0.039 C 
ATOM     12  C   UNL     1      33.049  -0.971  26.541  0.00  0.00    -0.032 C 
ATOM     13  C   UNL     1      31.508  -1.059  26.397  0.00  0.00    +0.006 C 
ATOM     14  C   UNL     1      30.834  -0.280  27.560  0.00  0.00    +0.030 C 
ATOM     15  C   UNL     1      29.303  -0.468  27.611  0.00  0.00    -0.048 A 
ENDROOT
BRANCH   3  16
ATOM     16  O   UNL     1      25.138  -1.015  27.228  0.00  0.00    -0.339 OA
ATOM     17  H   UNL     1      24.629  -0.212  27.205  0.00  0.00    +0.246 HD
ENDBRANCH   3  16
BRANCH   9  18
ATOM     18  C   UNL     1      33.174   0.775  29.022  0.00  0.00    +0.179 C 
BRANCH  18  19
ATOM     19  C   UNL     1      34.355   1.370  29.638  0.00  0.00    +0.089 C 
ATOM     20  N   UNL     1      35.298   1.838  30.120  0.00  0.00    -0.304 NA
ENDBRANCH  18  19
ENDBRANCH   9  18
BRANCH  10  21
ATOM     21  C   UNL     1      35.042   0.362  26.965  0.00  0.00    +0.114 C 
BRANCH  21  22
ATOM     22  O   UNL     1      36.003   1.234  26.791  0.00  0.00    -0.246 OA
ATOM     23  H   UNL     1      36.811   0.892  27.155  0.00  0.00    +0.000 HD
ENDBRANCH  21  22
ENDBRANCH  10  21
TORSDOF 5
ENDMDL
MODEL 4
REMARK minimizedAffinity -7.14395475
REMARK minimizedRMSD -1
REMARK  Name = scaffold
REMARK  6 active torsions:
REMARK  status: ('A' for Active; 'I' for Inactive)
REMARK    1  A    between atoms: C_3  and  O_4
REMARK    2  A    between atoms: C_5  and  C_17
REMARK    3  A    between atoms: C_15  and  C_20
REMARK    4  A    between atoms: C_15  and  C_23
REMARK    5  A    between atoms: C_16  and  C_17
REMARK    6  A    between atoms: C_23  and  O_25
REMARK                            x       y       z     vdW  Elec       q    Type
REMARK                         _______ _______ _______ _____ _____    ______ ____
ROOT
ATOM      1  C   UNL     1      33.951  -0.524  29.010  0.00  0.00    -0.024 A 
ATOM      2  C   UNL     1      35.346  -0.566  28.933  0.00  0.00    +0.000 A 
ATOM      3  C   UNL     1      35.973  -1.111  27.812  0.00  0.00    +0.074 A 
ATOM      4  C   UNL     1      35.184  -1.656  26.793  0.00  0.00    +0.008 A 
ATOM      5  C   UNL     1      33.787  -1.618  26.876  0.00  0.00    -0.049 A 
ATOM      6  C   UNL     1      32.985  -2.328  25.783  0.00  0.00    +0.058 C 
ATOM      7  C   UNL     1      31.484  -2.466  26.149  0.00  0.00    +0.018 C 
ATOM      8  C   UNL     1      30.942  -1.084  26.606  0.00  0.00    +0.000 C 
ATOM      9  C   UNL     1      29.383  -1.010  26.747  0.00  0.00    -0.004 C 
ATOM     10  C   UNL     1      28.908   0.408  27.232  0.00  0.00    +0.006 C 
ATOM     11  C   UNL     1      29.047   1.499  26.123  0.00  0.00    -0.039 C 
ATOM     12  C   UNL     1      29.706   0.834  28.501  0.00  0.00    -0.032 C 
ATOM     13  C   UNL     1      31.243   0.739  28.321  0.00  0.00    +0.006 C 
ATOM     14  C   UNL     1      31.633  -0.718  27.954  0.00  0.00    +0.030 C 
ATOM     15  C   UNL     1      33.158  -0.955  27.939  0.00  0.00    -0.048 A 
ENDROOT
BRANCH   3  16
ATOM     16  O   UNL     1      37.369  -1.105  27.737  0.00  0.00    -0.339 OA
ATOM     17  H   UNL     1      37.718  -1.453  26.923  0.00  0.00    +0.246 HD
ENDBRANCH   3  16
BRANCH   9  18
ATOM     18  C   UNL     1      28.997  -2.046  27.852  0.00  0.00    +0.179 C 
BRANCH  18  19
ATOM     19  C   UNL     1      28.278  -3.216  27.357  0.00  0.00    +0.089 C 
ATOM     20  N   UNL     1      27.708  -4.140  26.956  0.00  0.00    -0.304 NA
ENDBRANCH  18  19
ENDBRANCH   9  18
BRANCH  10  21
ATOM     21  C   UNL     1      27.466   0.305  27.707  0.00  0.00    +0.114 C 
BRANCH  21  22
ATOM     22  O   UNL     1      26.382   0.343  26.974  0.00  0.00    -0.246 OA
ATOM     23  H   UNL     1      25.619   0.256  27.532  0.00  0.00    +0.000 HD
ENDBRANCH  21  22
ENDBRANCH  10  21
TORSDOF 5
ENDMDL
MODEL 5
REMARK minimizedAffinity -6.9274435
REMARK minimizedRMSD -1
REMARK  Name = scaffold
REMARK  6 active torsions:
REMARK  status: ('A' for Active; 'I' for Inactive)
REMARK    1  A    between atoms: C_3  and  O_4
REMARK    2  A    between atoms: C_5  and  C_17
REMARK    3  A    between atoms: C_15  and  C_20
REMARK    4  A    between atoms: C_15  and  C_23
REMARK    5  A    between atoms: C_16  and  C_17
REMARK    6  A    between atoms: C_23  and  O_25
REMARK                            x       y       z     vdW  Elec       q    Type
REMARK                         _______ _______ _______ _____ _____    ______ ____
ROOT
ATOM      1  C   UNL     1      31.775  -1.606  23.208  0.00  0.00    -0.024 A 
ATOM      2  C   UNL     1      32.073  -2.594  22.266  0.00  0.00    +0.000 A 
ATOM      3  C   UNL     1      32.563  -3.834  22.678  0.00  0.00    +0.074 A 
ATOM      4  C   UNL     1      32.797  -4.052  24.040  0.00  0.00    +0.008 A 
ATOM      5  C   UNL     1      32.505  -3.056  24.981  0.00  0.00    -0.049 A 
ATOM      6  C   UNL     1      32.886  -3.316  26.440  0.00  0.00    +0.058 C 
ATOM      7  C   UNL     1      32.784  -2.038  27.312  0.00  0.00    +0.018 C 
ATOM      8  C   UNL     1      31.402  -1.369  27.075  0.00  0.00    +0.000 C 
ATOM      9  C   UNL     1      31.052  -0.223  28.086  0.00  0.00    -0.004 C 
ATOM     10  C   UNL     1      29.652   0.422  27.774  0.00  0.00    +0.006 C 
ATOM     11  C   UNL     1      28.462  -0.521  28.141  0.00  0.00    -0.039 C 
ATOM     12  C   UNL     1      29.571   0.821  26.270  0.00  0.00    -0.032 C 
ATOM     13  C   UNL     1      29.932  -0.338  25.306  0.00  0.00    +0.006 C 
ATOM     14  C   UNL     1      31.371  -0.837  25.611  0.00  0.00    +0.030 C 
ATOM     15  C   UNL     1      31.890  -1.862  24.581  0.00  0.00    -0.048 A 
ENDROOT
BRANCH   3  16
ATOM     16  O   UNL     1      32.815  -4.823  21.723  0.00  0.00    -0.339 OA
ATOM     17  H   UNL     1      33.104  -5.653  22.086  0.00  0.00    +0.246 HD
ENDBRANCH   3  16
BRANCH   9  18
ATOM     18  C   UNL     1      32.140   0.881  27.887  0.00  0.00    +0.179 C 
BRANCH  18  19
ATOM     19  C   UNL     1      32.909   1.193  29.087  0.00  0.00    +0.089 C 
ATOM     20  N   UNL     1      33.521   1.450  30.037  0.00  0.00    -0.304 NA
ENDBRANCH  18  19
ENDBRANCH   9  18
BRANCH  10  21
ATOM     21  C   UNL     1      29.543   1.741  28.524  0.00  0.00    +0.114 C 
BRANCH  21  22
ATOM     22  O   UNL     1      28.544   2.588  28.504  0.00  0.00    -0.246 OA
ATOM     23  H   UNL     1      28.745   3.327  29.066  0.00  0.00    +0.000 HD
ENDBRANCH  21  22
ENDBRANCH  10  21
TORSDOF 5
ENDMDL
MODEL 6
REMARK minimizedAffinity -6.87963676
REMARK minimizedRMSD -1
REMARK  Name = scaffold
REMARK  6 active torsions:
REMARK  status: ('A' for Active; 'I' for Inactive)
REMARK    1  A    between atoms: C_3  and  O_4
REMARK    2  A    between atoms: C_5  and  C_17
REMARK    3  A    between atoms: C_15  and  C_20
REMARK    4  A    between atoms: C_15  and  C_23
REMARK    5  A    between atoms: C_16  and  C_17
REMARK    6  A    between atoms: C_23  and  O_25
REMARK                            x       y       z     vdW  Elec       q    Type
REMARK                         _______ _______ _______ _____ _____    ______ ____
ROOT
ATOM      1  C   UNL     1      32.179  -1.585  23.280  0.00  0.00    -0.024 A 
ATOM      2  C   UNL     1      32.068  -2.522  22.249  0.00  0.00    +0.000 A 
ATOM      3  C   UNL     1      32.258  -3.880  22.510  0.00  0.00    +0.074 A 
ATOM      4  C   UNL     1      32.608  -4.279  23.804  0.00  0.00    +0.008 A 
ATOM      5  C   UNL     1      32.725  -3.336  24.833  0.00  0.00    -0.049 A 
ATOM      6  C   UNL     1      33.216  -3.823  26.198  0.00  0.00    +0.058 C 
ATOM      7  C   UNL     1      33.582  -2.651  27.145  0.00  0.00    +0.018 C 
ATOM      8  C   UNL     1      32.412  -1.629  27.165  0.00  0.00    +0.000 C 
ATOM      9  C   UNL     1      32.524  -0.533  28.280  0.00  0.00    -0.004 C 
ATOM     10  C   UNL     1      31.321   0.478  28.227  0.00  0.00    +0.006 C 
ATOM     11  C   UNL     1      29.982  -0.157  28.722  0.00  0.00    -0.039 C 
ATOM     12  C   UNL     1      31.147   1.026  26.779  0.00  0.00    -0.032 C 
ATOM     13  C   UNL     1      31.048  -0.090  25.707  0.00  0.00    +0.006 C 
ATOM     14  C   UNL     1      32.326  -0.970  25.756  0.00  0.00    +0.030 C 
ATOM     15  C   UNL     1      32.406  -1.991  24.601  0.00  0.00    -0.048 A 
ENDROOT
BRANCH   3  16
ATOM     16  O   UNL     1      32.102  -4.805  21.473  0.00  0.00    -0.339 OA
ATOM     17  H   UNL     1      32.204  -5.712  21.739  0.00  0.00    +0.246 HD
ENDBRANCH   3  16
BRANCH   9  18
ATOM     18  C   UNL     1      33.832   0.266  27.976  0.00  0.00    +0.179 C 
BRANCH  18  19
ATOM     19  C   UNL     1      34.906   0.056  28.941  0.00  0.00    +0.089 C 
ATOM     20  N   UNL     1      35.764  -0.114  29.700  0.00  0.00    -0.304 NA
ENDBRANCH  18  19
ENDBRANCH   9  18
BRANCH  10  21
ATOM     21  C   UNL     1      31.674   1.703  29.058  0.00  0.00    +0.114 C 
BRANCH  21  22
ATOM     22  O   UNL     1      31.780   1.777  30.361  0.00  0.00    -0.246 OA
ATOM     23  H   UNL     1      32.011   2.665  30.609  0.00  0.00    +0.000 HD
ENDBRANCH  21  22
ENDBRANCH  10  21
TORSDOF 5
ENDMDL
MODEL 7
REMARK minimizedAffinity -6.42769194
REMARK minimizedRMSD -1
REMARK  Name = scaffold
REMARK  6 active torsions:
REMARK  status: ('A' for Active; 'I' for Inactive)
REMARK    1  A    between atoms: C_3  and  O_4
REMARK    2  A    between atoms: C_5  and  C_17
REMARK    3  A    between atoms: C_15  and  C_20
REMARK    4  A    between atoms: C_15  and  C_23
REMARK    5  A    between atoms: C_16  and  C_17
REMARK    6  A    between atoms: C_23  and  O_25
REMARK                            x       y       z     vdW  Elec       q    Type
REMARK                         _______ _______ _______ _____ _____    ______ ____
ROOT
ATOM      1  C   UNL     1      29.381  -0.762  26.166  0.00  0.00    -0.024 A 
ATOM      2  C   UNL     1      28.233  -1.543  26.015  0.00  0.00    +0.000 A 
ATOM      3  C   UNL     1      28.164  -2.811  26.595  0.00  0.00    +0.074 A 
ATOM      4  C   UNL     1      29.278  -3.302  27.284  0.00  0.00    +0.008 A 
ATOM      5  C   UNL     1      30.430  -2.519  27.427  0.00  0.00    -0.049 A 
ATOM      6  C   UNL     1      31.651  -3.155  28.095  0.00  0.00    +0.058 C 
ATOM      7  C   UNL     1      32.931  -2.297  27.923  0.00  0.00    +0.018 C 
ATOM      8  C   UNL     1      32.619  -0.830  28.326  0.00  0.00    +0.000 C 
ATOM      9  C   UNL     1      33.880   0.091  28.460  0.00  0.00    -0.004 C 
ATOM     10  C   UNL     1      33.488   1.564  28.848  0.00  0.00    +0.006 C 
ATOM     11  C   UNL     1      33.008   1.686  30.329  0.00  0.00    -0.039 C 
ATOM     12  C   UNL     1      32.384   2.094  27.884  0.00  0.00    -0.032 C 
ATOM     13  C   UNL     1      31.159   1.150  27.775  0.00  0.00    +0.006 C 
ATOM     14  C   UNL     1      31.623  -0.246  27.279  0.00  0.00    +0.030 C 
ATOM     15  C   UNL     1      30.451  -1.198  26.958  0.00  0.00    -0.048 A 
ENDROOT
BRANCH   3  16
ATOM     16  O   UNL     1      26.990  -3.559  26.468  0.00  0.00    -0.339 OA
ATOM     17  H   UNL     1      27.005  -4.392  26.928  0.00  0.00    +0.246 HD
ENDBRANCH   3  16
BRANCH   9  18
ATOM     18  C   UNL     1      34.543   0.131  27.045  0.00  0.00    +0.179 C 
BRANCH  18  19
ATOM     19  C   UNL     1      35.945  -0.270  27.025  0.00  0.00    +0.089 C 
ATOM     20  N   UNL     1      37.058  -0.592  26.999  0.00  0.00    -0.304 NA
ENDBRANCH  18  19
ENDBRANCH   9  18
BRANCH  10  21
ATOM     21  C   UNL     1      34.683   2.471  28.594  0.00  0.00    +0.114 C 
BRANCH  21  22
ATOM     22  O   UNL     1      35.822   2.487  29.239  0.00  0.00    -0.246 OA
ATOM     23  H   UNL     1      36.386   3.156  28.868  0.00  0.00    +0.000 HD
ENDBRANCH  21  22
ENDBRANCH  10  21
TORSDOF 5
ENDMDL
MODEL 8
REMARK minimizedAffinity -6.39249134
REMARK minimizedRMSD -1
REMARK  Name = scaffold
REMARK  6 active torsions:
REMARK  status: ('A' for Active; 'I' for Inactive)
REMARK    1  A    between atoms: C_3  and  O_4
REMARK    2  A    between atoms: C_5  and  C_17
REMARK    3  A    between atoms: C_15  and  C_20
REMARK    4  A    between atoms: C_15  and  C_23
REMARK    5  A    between atoms: C_16  and  C_17
REMARK    6  A    between atoms: C_23  and  O_25
REMARK                            x       y       z     vdW  Elec       q    Type
REMARK                         _______ _______ _______ _____ _____    ______ ____
ROOT
ATOM      1  C   UNL     1      33.906  -0.993  26.446  0.00  0.00    -0.024 A 
ATOM      2  C   UNL     1      35.250  -1.187  26.775  0.00  0.00    +0.000 A 
ATOM      3  C   UNL     1      35.673  -1.076  28.100  0.00  0.00    +0.074 A 
ATOM      4  C   UNL     1      34.741  -0.722  29.082  0.00  0.00    +0.008 A 
ATOM      5  C   UNL     1      33.395  -0.522  28.747  0.00  0.00    -0.049 A 
ATOM      6  C   UNL     1      32.450  -0.030  29.845  0.00  0.00    +0.058 C 
ATOM      7  C   UNL     1      31.081   0.430  29.281  0.00  0.00    +0.018 C 
ATOM      8  C   UNL     1      30.521  -0.672  28.340  0.00  0.00    +0.000 C 
ATOM      9  C   UNL     1      29.027  -0.465  27.912  0.00  0.00    -0.004 C 
ATOM     10  C   UNL     1      28.535  -1.603  26.945  0.00  0.00    +0.006 C 
ATOM     11  C   UNL     1      28.332  -2.967  27.679  0.00  0.00    -0.039 C 
ATOM     12  C   UNL     1      29.542  -1.776  25.768  0.00  0.00    -0.032 C 
ATOM     13  C   UNL     1      31.007  -1.971  26.235  0.00  0.00    +0.006 C 
ATOM     14  C   UNL     1      31.445  -0.749  27.088  0.00  0.00    +0.030 C 
ATOM     15  C   UNL     1      32.947  -0.761  27.441  0.00  0.00    -0.048 A 
ENDROOT
BRANCH   3  16
ATOM     16  O   UNL     1      37.014  -1.315  28.414  0.00  0.00    -0.339 OA
ATOM     17  H   UNL     1      37.214  -1.264  29.342  0.00  0.00    +0.246 HD
ENDBRANCH   3  16
BRANCH   9  18
ATOM     18  C   UNL     1      28.983   0.883  27.123  0.00  0.00    +0.179 C 
BRANCH  18  19
ATOM     19  C   UNL     1      28.459   2.011  27.884  0.00  0.00    +0.089 C 
ATOM     20  N   UNL     1      28.050   2.906  28.496  0.00  0.00    -0.304 NA
ENDBRANCH  18  19
ENDBRANCH   9  18
BRANCH  10  21
ATOM     21  C   UNL     1      27.243  -1.155  26.279  0.00  0.00    +0.114 C 
BRANCH  21  22
ATOM     22  O   UNL     1      26.082  -0.952  26.849  0.00  0.00    -0.246 OA
ATOM     23  H   UNL     1      25.452  -0.677  26.194  0.00  0.00    +0.000 HD
ENDBRANCH  21  22
ENDBRANCH  10  21
TORSDOF 5
ENDMDL
MODEL 9
REMARK minimizedAffinity -6.36723232
REMARK minimizedRMSD -1
REMARK  Name = scaffold
REMARK  6 active torsions:
REMARK  status: ('A' for Active; 'I' for Inactive)
REMARK    1  A    between atoms: C_3  and  O_4
REMARK    2  A    between atoms: C_5  and  C_17
REMARK    3  A    between atoms: C_15  and  C_20
REMARK    4  A    between atoms: C_15  and  C_23
REMARK    5  A    between atoms: C_16  and  C_17
REMARK    6  A    between atoms: C_23  and  O_25
REMARK                            x       y       z     vdW  Elec       q    Type
REMARK                         _______ _______ _______ _____ _____    ______ ____
ROOT
ATOM      1  C   UNL     1      32.365   1.237  30.015  0.00  0.00    -0.024 A 
ATOM      2  C   UNL     1      33.657   1.697  30.280  0.00  0.00    +0.000 A 
ATOM      3  C   UNL     1      34.710   1.366  29.426  0.00  0.00    +0.074 A 
ATOM      4  C   UNL     1      34.459   0.531  28.332  0.00  0.00    +0.008 A 
ATOM      5  C   UNL     1      33.163   0.066  28.074  0.00  0.00    -0.049 A 
ATOM      6  C   UNL     1      32.975  -0.931  26.928  0.00  0.00    +0.058 C 
ATOM      7  C   UNL     1      31.569  -1.584  26.941  0.00  0.00    +0.018 C 
ATOM      8  C   UNL     1      30.491  -0.471  27.062  0.00  0.00    +0.000 C 
ATOM      9  C   UNL     1      29.022  -0.958  26.816  0.00  0.00    -0.004 C 
ATOM     10  C   UNL     1      27.985   0.213  26.976  0.00  0.00    +0.006 C 
ATOM     11  C   UNL     1      28.045   1.233  25.794  0.00  0.00    -0.039 C 
ATOM     12  C   UNL     1      28.218   0.952  28.329  0.00  0.00    -0.032 C 
ATOM     13  C   UNL     1      29.685   1.409  28.535  0.00  0.00    +0.006 C 
ATOM     14  C   UNL     1      30.626   0.176  28.473  0.00  0.00    +0.030 C 
ATOM     15  C   UNL     1      32.085   0.503  28.855  0.00  0.00    -0.048 A 
ENDROOT
BRANCH   3  16
ATOM     16  O   UNL     1      35.988   1.871  29.685  0.00  0.00    -0.339 OA
ATOM     17  H   UNL     1      36.641   1.638  29.034  0.00  0.00    +0.246 HD
ENDBRANCH   3  16
BRANCH   9  18
ATOM     18  C   UNL     1      28.722  -2.016  27.927  0.00  0.00    +0.179 C 
BRANCH  18  19
ATOM     19  C   UNL     1      28.300  -3.318  27.422  0.00  0.00    +0.089 C 
ATOM     20  N   UNL     1      27.962  -4.354  27.030  0.00  0.00    -0.304 NA
ENDBRANCH  18  19
ENDBRANCH   9  18
BRANCH  10  21
ATOM     21  C   UNL     1      26.590  -0.381  27.102  0.00  0.00    +0.114 C 
BRANCH  21  22
ATOM     22  O   UNL     1      25.564  -0.177  26.316  0.00  0.00    -0.246 OA
ATOM     23  H   UNL     1      24.819  -0.675  26.631  0.00  0.00    +0.000 HD
ENDBRANCH  21  22
ENDBRANCH  10  21
TORSDOF 5
ENDMDL
MODEL 10
REMARK minimizedAffinity -6.22445774
REMARK minimizedRMSD -1
REMARK  Name = scaffold
REMARK  6 active torsions:
REMARK  status: ('A' for Active; 'I' for Inactive)
REMARK    1  A    between atoms: C_3  and  O_4
REMARK    2  A    between atoms: C_5  and  C_17
REMARK    3  A    between atoms: C_15  and  C_20
REMARK    4  A    between atoms: C_15  and  C_23
REMARK    5  A    between atoms: C_16  and  C_17
REMARK    6  A    between atoms: C_23  and  O_25
REMARK                            x       y       z     vdW  Elec       q    Type
REMARK                         _______ _______ _______ _____ _____    ______ ____
ROOT
ATOM      1  C   UNL     1      32.691  -3.872  24.710  0.00  0.00    -0.024 A 
ATOM      2  C   UNL     1      32.590  -4.569  23.503  0.00  0.00    +0.000 A 
ATOM      3  C   UNL     1      32.303  -3.887  22.320  0.00  0.00    +0.074 A 
ATOM      4  C   UNL     1      32.071  -2.509  22.371  0.00  0.00    +0.008 A 
ATOM      5  C   UNL     1      32.167  -1.815  23.584  0.00  0.00    -0.049 A 
ATOM      6  C   UNL     1      31.794  -0.331  23.591  0.00  0.00    +0.058 C 
ATOM      7  C   UNL     1      31.656   0.235  25.028  0.00  0.00    +0.018 C 
ATOM      8  C   UNL     1      32.912  -0.158  25.853  0.00  0.00    +0.000 C 
ATOM      9  C   UNL     1      33.037   0.569  27.236  0.00  0.00    -0.004 C 
ATOM     10  C   UNL     1      34.317   0.108  28.024  0.00  0.00    +0.006 C 
ATOM     11  C   UNL     1      35.638   0.662  27.401  0.00  0.00    -0.039 C 
ATOM     12  C   UNL     1      34.371  -1.448  28.090  0.00  0.00    -0.032 C 
ATOM     13  C   UNL     1      34.237  -2.128  26.703  0.00  0.00    +0.006 C 
ATOM     14  C   UNL     1      32.894  -1.704  26.047  0.00  0.00    +0.030 C 
ATOM     15  C   UNL     1      32.582  -2.476  24.748  0.00  0.00    -0.048 A 
ENDROOT
BRANCH   3  16
ATOM     16  O   UNL     1      32.248  -4.597  21.116  0.00  0.00    -0.339 OA
ATOM     17  H   UNL     1      32.092  -4.056  20.350  0.00  0.00    +0.246 HD
ENDBRANCH   3  16
BRANCH   9  18
ATOM     18  C   UNL     1      31.785   0.142  28.068  0.00  0.00    +0.179 C 
BRANCH  18  19
ATOM     19  C   UNL     1      30.845   1.224  28.341  0.00  0.00    +0.089 C 
ATOM     20  N   UNL     1      30.092   2.076  28.561  0.00  0.00    -0.304 NA
ENDBRANCH  18  19
ENDBRANCH   9  18
BRANCH  10  21
ATOM     21  C   UNL     1      34.183   0.546  29.475  0.00  0.00    +0.114 C 
BRANCH  21  22
ATOM     22  O   UNL     1      34.227   1.767  29.945  0.00  0.00    -0.246 OA
ATOM     23  H   UNL     1      34.115   1.747  30.888  0.00  0.00    +0.000 HD
ENDBRANCH  21  22
ENDBRANCH  10  21
TORSDOF 5
ENDMDL
MODEL 11
REMARK minimizedAffinity -6.17206097
REMARK minimizedRMSD -1
REMARK  Name = scaffold
REMARK  6 active torsions:
REMARK  status: ('A' for Active; 'I' for Inactive)
REMARK    1  A    between atoms: C_3  and  O_4
REMARK    2  A    between atoms: C_5  and  C_17
REMARK    3  A    between atoms: C_15  and  C_20
REMARK    4  A    between atoms: C_15  and  C_23
REMARK    5  A    between atoms: C_16  and  C_17
REMARK    6  A    between atoms: C_23  and  O_25
REMARK                            x       y       z     vdW  Elec       q    Type
REMARK                         _______ _______ _______ _____ _____    ______ ____
ROOT
ATOM      1  C   UNL     1      33.775   0.252  29.318  0.00  0.00    -0.024 A 
ATOM      2  C   UNL     1      34.640   1.326  29.541  0.00  0.00    +0.000 A 
ATOM      3  C   UNL     1      34.997   2.171  28.490  0.00  0.00    +0.074 A 
ATOM      4  C   UNL     1      34.514   1.897  27.206  0.00  0.00    +0.008 A 
ATOM      5  C   UNL     1      33.652   0.816  26.985  0.00  0.00    -0.049 A 
ATOM      6  C   UNL     1      33.248   0.505  25.542  0.00  0.00    +0.058 C 
ATOM      7  C   UNL     1      32.547  -0.872  25.410  0.00  0.00    +0.018 C 
ATOM      8  C   UNL     1      31.419  -0.973  26.472  0.00  0.00    +0.000 C 
ATOM      9  C   UNL     1      30.452  -2.192  26.282  0.00  0.00    -0.004 C 
ATOM     10  C   UNL     1      29.351  -2.244  27.402  0.00  0.00    +0.006 C 
ATOM     11  C   UNL     1      28.274  -1.124  27.237  0.00  0.00    -0.039 C 
ATOM     12  C   UNL     1      30.014  -2.141  28.809  0.00  0.00    -0.032 C 
ATOM     13  C   UNL     1      30.967  -0.926  28.952  0.00  0.00    +0.006 C 
ATOM     14  C   UNL     1      32.086  -1.016  27.879  0.00  0.00    +0.030 C 
ATOM     15  C   UNL     1      33.190   0.046  28.061  0.00  0.00    -0.048 A 
ENDROOT
BRANCH   3  16
ATOM     16  O   UNL     1      35.831   3.264  28.742  0.00  0.00    -0.339 OA
ATOM     17  H   UNL     1      35.992   3.817  27.986  0.00  0.00    +0.246 HD
ENDBRANCH   3  16
BRANCH   9  18
ATOM     18  C   UNL     1      31.336  -3.474  26.422  0.00  0.00    +0.179 C 
BRANCH  18  19
ATOM     19  C   UNL     1      32.045  -3.854  25.205  0.00  0.00    +0.089 C 
ATOM     20  N   UNL     1      32.600  -4.154  24.234  0.00  0.00    -0.304 NA
ENDBRANCH  18  19
ENDBRANCH   9  18
BRANCH  10  21
ATOM     21  C   UNL     1      28.702  -3.620  27.388  0.00  0.00    +0.114 C 
BRANCH  21  22
ATOM     22  O   UNL     1      27.661  -4.001  26.691  0.00  0.00    -0.246 OA
ATOM     23  H   UNL     1      27.473  -4.914  26.877  0.00  0.00    +0.000 HD
ENDBRANCH  21  22
ENDBRANCH  10  21
TORSDOF 5
ENDMDL
MODEL 12
REMARK minimizedAffinity -5.9452281
REMARK minimizedRMSD -1
REMARK  Name = scaffold
REMARK  6 active torsions:
REMARK  status: ('A' for Active; 'I' for Inactive)
REMARK    1  A    between atoms: C_3  and  O_4
REMARK    2  A    between atoms: C_5  and  C_17
REMARK    3  A    between atoms: C_15  and  C_20
REMARK    4  A    between atoms: C_15  and  C_23
REMARK    5  A    between atoms: C_16  and  C_17
REMARK    6  A    between atoms: C_23  and  O_25
REMARK                            x       y       z     vdW  Elec       q    Type
REMARK                         _______ _______ _______ _____ _____    ______ ____
ROOT
ATOM      1  C   UNL     1      33.236   0.947  26.365  0.00  0.00    -0.024 A 
ATOM      2  C   UNL     1      34.462   1.548  26.661  0.00  0.00    +0.000 A 
ATOM      3  C   UNL     1      34.684   2.108  27.920  0.00  0.00    +0.074 A 
ATOM      4  C   UNL     1      33.646   2.102  28.858  0.00  0.00    +0.008 A 
ATOM      5  C   UNL     1      32.416   1.504  28.554  0.00  0.00    -0.049 A 
ATOM      6  C   UNL     1      31.287   1.627  29.580  0.00  0.00    +0.058 C 
ATOM      7  C   UNL     1      29.916   1.192  29.003  0.00  0.00    +0.018 C 
ATOM      8  C   UNL     1      30.068  -0.194  28.318  0.00  0.00    +0.000 C 
ATOM      9  C   UNL     1      28.714  -0.880  27.928  0.00  0.00    -0.004 C 
ATOM     10  C   UNL     1      28.945  -2.265  27.221  0.00  0.00    +0.006 C 
ATOM     11  C   UNL     1      29.435  -3.369  28.212  0.00  0.00    -0.039 C 
ATOM     12  C   UNL     1      29.964  -2.106  26.053  0.00  0.00    -0.032 C 
ATOM     13  C   UNL     1      31.285  -1.417  26.480  0.00  0.00    +0.006 C 
ATOM     14  C   UNL     1      30.972  -0.012  27.062  0.00  0.00    +0.030 C 
ATOM     15  C   UNL     1      32.237   0.827  27.340  0.00  0.00    -0.048 A 
ENDROOT
BRANCH   3  16
ATOM     16  O   UNL     1      35.932   2.667  28.211  0.00  0.00    -0.339 OA
ATOM     17  H   UNL     1      36.019   2.988  29.102  0.00  0.00    +0.246 HD
ENDBRANCH   3  16
BRANCH   9  18
ATOM     18  C   UNL     1      28.024   0.072  26.898  0.00  0.00    +0.179 C 
BRANCH  18  19
ATOM     19  C   UNL     1      26.569  -0.028  26.864  0.00  0.00    +0.089 C 
ATOM     20  N   UNL     1      25.414  -0.112  26.846  0.00  0.00    -0.304 NA
ENDBRANCH  18  19
ENDBRANCH   9  18
BRANCH  10  21
ATOM     21  C   UNL     1      27.651  -2.690  26.542  0.00  0.00    +0.114 C 
BRANCH  21  22
ATOM     22  O   UNL     1      27.144  -3.895  26.479  0.00  0.00    -0.246 OA
ATOM     23  H   UNL     1      26.328  -3.870  25.993  0.00  0.00    +0.000 HD
ENDBRANCH  21  22
ENDBRANCH  10  21
TORSDOF 5
ENDMDL
MODEL 13
REMARK minimizedAffinity -5.91196012
REMARK minimizedRMSD -1
REMARK  Name = scaffold
REMARK  6 active torsions:
REMARK  status: ('A' for Active; 'I' for Inactive)
REMARK    1  A    between atoms: C_3  and  O_4
REMARK    2  A    between atoms: C_5  and  C_17
REMARK    3  A    between atoms: C_15  and  C_20
REMARK    4  A    between atoms: C_15  and  C_23
REMARK    5  A    between atoms: C_16  and  C_17
REMARK    6  A    between atoms: C_23  and  O_25
REMARK                            x       y       z     vdW  Elec       q    Type
REMARK                         _______ _______ _______ _____ _____    ______ ____
ROOT
ATOM      1  C   UNL     1      28.543   0.964  27.713  0.00  0.00    -0.024 A 
ATOM      2  C   UNL     1      27.178   0.809  27.459  0.00  0.00    +0.000 A 
ATOM      3  C   UNL     1      26.732  -0.195  26.598  0.00  0.00    +0.074 A 
ATOM      4  C   UNL     1      27.674  -1.008  25.959  0.00  0.00    +0.008 A 
ATOM      5  C   UNL     1      29.042  -0.846  26.211  0.00  0.00    -0.049 A 
ATOM      6  C   UNL     1      30.026  -1.692  25.399  0.00  0.00    +0.058 C 
ATOM      7  C   UNL     1      31.490  -1.209  25.558  0.00  0.00    +0.018 C 
ATOM      8  C   UNL     1      31.812  -1.049  27.069  0.00  0.00    +0.000 C 
ATOM      9  C   UNL     1      33.331  -0.828  27.392  0.00  0.00    -0.004 C 
ATOM     10  C   UNL     1      33.580  -0.653  28.934  0.00  0.00    +0.006 C 
ATOM     11  C   UNL     1      33.413  -1.990  29.724  0.00  0.00    -0.039 C 
ATOM     12  C   UNL     1      32.618   0.430  29.511  0.00  0.00    -0.032 C 
ATOM     13  C   UNL     1      31.129   0.178  29.163  0.00  0.00    +0.006 C 
ATOM     14  C   UNL     1      30.958   0.132  27.620  0.00  0.00    +0.030 C 
ATOM     15  C   UNL     1      29.482   0.074  27.173  0.00  0.00    -0.048 A 
ENDROOT
BRANCH   3  16
ATOM     16  O   UNL     1      25.359  -0.359  26.390  0.00  0.00    -0.339 OA
ATOM     17  H   UNL     1      25.134  -1.091  25.827  0.00  0.00    +0.246 HD
ENDBRANCH   3  16
BRANCH   9  18
ATOM     18  C   UNL     1      33.735   0.508  26.688  0.00  0.00    +0.179 C 
BRANCH  18  19
ATOM     19  C   UNL     1      35.165   0.797  26.720  0.00  0.00    +0.089 C 
ATOM     20  N   UNL     1      36.300   1.024  26.737  0.00  0.00    -0.304 NA
ENDBRANCH  18  19
ENDBRANCH   9  18
BRANCH  10  21
ATOM     21  C   UNL     1      34.972  -0.075  29.143  0.00  0.00    +0.114 C 
BRANCH  21  22
ATOM     22  O   UNL     1      35.302   0.967  29.862  0.00  0.00    -0.246 OA
ATOM     23  H   UNL     1      36.241   1.101  29.814  0.00  0.00    +0.000 HD
ENDBRANCH  21  22
ENDBRANCH  10  21
TORSDOF 5
ENDMDL
MODEL 14
REMARK minimizedAffinity -5.30269575
REMARK minimizedRMSD -1
REMARK  Name = scaffold
REMARK  6 active torsions:
REMARK  status: ('A' for Active; 'I' for Inactive)
REMARK    1  A    between atoms: C_3  and  O_4
REMARK    2  A    between atoms: C_5  and  C_17
REMARK    3  A    between atoms: C_15  and  C_20
REMARK    4  A    between atoms: C_15  and  C_23
REMARK    5  A    between atoms: C_16  and  C_17
REMARK    6  A    between atoms: C_23  and  O_25
REMARK                            x       y       z     vdW  Elec       q    Type
REMARK                         _______ _______ _______ _____ _____    ______ ____
ROOT
ATOM      1  C   UNL     1      32.815  -3.878  25.995  0.00  0.00    -0.024 A 
ATOM      2  C   UNL     1      32.482  -3.652  27.333  0.00  0.00    +0.000 A 
ATOM      3  C   UNL     1      31.912  -2.438  27.720  0.00  0.00    +0.074 A 
ATOM      4  C   UNL     1      31.726  -1.439  26.758  0.00  0.00    +0.008 A 
ATOM      5  C   UNL     1      32.067  -1.668  25.419  0.00  0.00    -0.049 A 
ATOM      6  C   UNL     1      31.941  -0.500  24.438  0.00  0.00    +0.058 C 
ATOM      7  C   UNL     1      32.623  -0.797  23.078  0.00  0.00    +0.018 C 
ATOM      8  C   UNL     1      32.142  -2.179  22.558  0.00  0.00    +0.000 C 
ATOM      9  C   UNL     1      32.536  -2.490  21.073  0.00  0.00    -0.004 C 
ATOM     10  C   UNL     1      32.037  -3.911  20.623  0.00  0.00    +0.006 C 
ATOM     11  C   UNL     1      30.488  -3.967  20.421  0.00  0.00    -0.039 C 
ATOM     12  C   UNL     1      32.478  -4.986  21.661  0.00  0.00    -0.032 C 
ATOM     13  C   UNL     1      32.075  -4.637  23.117  0.00  0.00    +0.006 C 
ATOM     14  C   UNL     1      32.704  -3.273  23.515  0.00  0.00    +0.030 C 
ATOM     15  C   UNL     1      32.516  -2.930  25.008  0.00  0.00    -0.048 A 
ENDROOT
BRANCH   3  16
ATOM     16  O   UNL     1      31.548  -2.247  29.056  0.00  0.00    -0.339 OA
ATOM     17  H   UNL     1      31.126  -1.413  29.232  0.00  0.00    +0.246 HD
ENDBRANCH   3  16
BRANCH   9  18
ATOM     18  C   UNL     1      34.098  -2.497  21.029  0.00  0.00    +0.179 C 
BRANCH  18  19
ATOM     19  C   UNL     1      34.673  -1.773  19.901  0.00  0.00    +0.089 C 
ATOM     20  N   UNL     1      35.124  -1.191  19.006  0.00  0.00    -0.304 NA
ENDBRANCH  18  19
ENDBRANCH   9  18
BRANCH  10  21
ATOM     21  C   UNL     1      32.759  -4.300  19.341  0.00  0.00    +0.114 C 
BRANCH  21  22
ATOM     22  O   UNL     1      32.498  -3.892  18.125  0.00  0.00    -0.246 OA
ATOM     23  H   UNL     1      33.107  -4.296  17.518  0.00  0.00    +0.000 HD
ENDBRANCH  21  22
ENDBRANCH  10  21
TORSDOF 5
ENDMDL
MODEL 15
REMARK minimizedAffinity -4.68083525
REMARK minimizedRMSD -1
REMARK  Name = scaffold
REMARK  6 active torsions:
REMARK  status: ('A' for Active; 'I' for Inactive)
REMARK    1  A    between atoms: C_3  and  O_4
REMARK    2  A    between atoms: C_5  and  C_17
REMARK    3  A    between atoms: C_15  and  C_20
REMARK    4  A    between atoms: C_15  and  C_23
REMARK    5  A    between atoms: C_16  and  C_17
REMARK    6  A    between atoms: C_23  and  O_25
REMARK                            x       y       z     vdW  Elec       q    Type
REMARK                         _______ _______ _______ _____ _____    ______ ____
ROOT
ATOM      1  C   UNL     1      28.489  -0.686  27.801  0.00  0.00    -0.024 A 
ATOM      2  C   UNL     1      27.422   0.215  27.820  0.00  0.00    +0.000 A 
ATOM      3  C   UNL     1      27.632   1.560  27.514  0.00  0.00    +0.074 A 
ATOM      4  C   UNL     1      28.932   1.997  27.236  0.00  0.00    +0.008 A 
ATOM      5  C   UNL     1      30.000   1.092  27.225  0.00  0.00    -0.049 A 
ATOM      6  C   UNL     1      31.411   1.651  27.023  0.00  0.00    +0.058 C 
ATOM      7  C   UNL     1      32.509   0.600  27.326  0.00  0.00    +0.018 C 
ATOM      8  C   UNL     1      32.180  -0.715  26.567  0.00  0.00    +0.000 C 
ATOM      9  C   UNL     1      33.339  -1.771  26.561  0.00  0.00    -0.004 C 
ATOM     10  C   UNL     1      32.929  -3.082  25.796  0.00  0.00    +0.006 C 
ATOM     11  C   UNL     1      32.857  -2.876  24.249  0.00  0.00    -0.039 C 
ATOM     12  C   UNL     1      31.560  -3.605  26.328  0.00  0.00    -0.032 C 
ATOM     13  C   UNL     1      30.446  -2.528  26.322  0.00  0.00    +0.006 C 
ATOM     14  C   UNL     1      30.889  -1.320  27.193  0.00  0.00    +0.030 C 
ATOM     15  C   UNL     1      29.769  -0.279  27.403  0.00  0.00    -0.048 A 
ENDROOT
BRANCH   3  16
ATOM     16  O   UNL     1      26.544   2.438  27.498  0.00  0.00    -0.339 OA
ATOM     17  H   UNL     1      26.761   3.326  27.237  0.00  0.00    +0.246 HD
ENDBRANCH   3  16
BRANCH   9  18
ATOM     18  C   UNL     1      33.588  -2.151  28.057  0.00  0.00    +0.179 C 
BRANCH  18  19
ATOM     19  C   UNL     1      34.711  -1.454  28.677  0.00  0.00    +0.089 C 
ATOM     20  N   UNL     1      35.603  -0.909  29.174  0.00  0.00    -0.304 NA
ENDBRANCH  18  19
ENDBRANCH   9  18
BRANCH  10  21
ATOM     21  C   UNL     1      33.919  -4.183  26.145  0.00  0.00    +0.114 C 
BRANCH  21  22
ATOM     22  O   UNL     1      33.693  -5.262  26.851  0.00  0.00    -0.246 OA
ATOM     23  H   UNL     1      34.491  -5.774  26.911  0.00  0.00    +0.000 HD
ENDBRANCH  21  22
ENDBRANCH  10  21
TORSDOF 5
ENDMDL
MODEL 16
REMARK minimizedAffinity -4.4129405
REMARK minimizedRMSD -1
REMARK  Name = scaffold
REMARK  6 active torsions:
REMARK  status: ('A' for Active; 'I' for Inactive)
REMARK    1  A    between atoms: C_3  and  O_4
REMARK    2  A    between atoms: C_5  and  C_17
REMARK    3  A    between atoms: C_15  and  C_20
REMARK    4  A    between atoms: C_15  and  C_23
REMARK    5  A    between atoms: C_16  and  C_17
REMARK    6  A    between atoms: C_23  and  O_25
REMARK                            x       y       z     vdW  Elec       q    Type
REMARK                         _______ _______ _______ _____ _____    ______ ____
ROOT
ATOM      1  C   UNL     1      33.753   1.813  27.360  0.00  0.00    -0.024 A 
ATOM      2  C   UNL     1      34.646   2.316  28.310  0.00  0.00    +0.000 A 
ATOM      3  C   UNL     1      34.979   1.558  29.433  0.00  0.00    +0.074 A 
ATOM      4  C   UNL     1      34.369   0.312  29.615  0.00  0.00    +0.008 A 
ATOM      5  C   UNL     1      33.470  -0.186  28.664  0.00  0.00    -0.049 A 
ATOM      6  C   UNL     1      32.755  -1.503  28.976  0.00  0.00    +0.058 C 
ATOM      7  C   UNL     1      31.585  -1.783  27.998  0.00  0.00    +0.018 C 
ATOM      8  C   UNL     1      32.087  -1.607  26.539  0.00  0.00    +0.000 C 
ATOM      9  C   UNL     1      31.092  -2.119  25.441  0.00  0.00    -0.004 C 
ATOM     10  C   UNL     1      31.655  -1.890  23.991  0.00  0.00    +0.006 C 
ATOM     11  C   UNL     1      32.831  -2.858  23.644  0.00  0.00    -0.039 C 
ATOM     12  C   UNL     1      32.117  -0.411  23.825  0.00  0.00    -0.032 C 
ATOM     13  C   UNL     1      33.093   0.057  24.934  0.00  0.00    +0.006 C 
ATOM     14  C   UNL     1      32.414  -0.099  26.322  0.00  0.00    +0.030 C 
ATOM     15  C   UNL     1      33.235   0.516  27.474  0.00  0.00    -0.048 A 
ENDROOT
BRANCH   3  16
ATOM     16  O   UNL     1      35.906   2.062  30.350  0.00  0.00    -0.339 OA
ATOM     17  H   UNL     1      36.114   1.469  31.064  0.00  0.00    +0.246 HD
ENDBRANCH   3  16
BRANCH   9  18
ATOM     18  C   UNL     1      29.797  -1.258  25.591  0.00  0.00    +0.179 C 
BRANCH  18  19
ATOM     19  C   UNL     1      28.713  -1.918  26.311  0.00  0.00    +0.089 C 
ATOM     20  N   UNL     1      27.847  -2.437  26.879  0.00  0.00    -0.304 NA
ENDBRANCH  18  19
ENDBRANCH   9  18
BRANCH  10  21
ATOM     21  C   UNL     1      30.517  -2.048  22.993  0.00  0.00    +0.114 C 
BRANCH  21  22
ATOM     22  O   UNL     1      30.562  -2.627  21.820  0.00  0.00    -0.246 OA
ATOM     23  H   UNL     1      29.706  -2.581  21.411  0.00  0.00    +0.000 HD
ENDBRANCH  21  22
ENDBRANCH  10  21
TORSDOF 5
ENDMDL
MODEL 17
REMARK minimizedAffinity -4.30008984
REMARK minimizedRMSD -1
REMARK  Name = scaffold
REMARK  6 active torsions:
REMARK  status: ('A' for Active; 'I' for Inactive)
REMARK    1  A    between atoms: C_3  and  O_4
REMARK    2  A    between atoms: C_5  and  C_17
REMARK    3  A    between atoms: C_15  and  C_20
REMARK    4  A    between atoms: C_15  and  C_23
REMARK    5  A    between atoms: C_16  and  C_17
REMARK    6  A    between atoms: C_23  and  O_25
REMARK                            x       y       z     vdW  Elec       q    Type
REMARK                         _______ _______ _______ _____ _____    ______ ____
ROOT
ATOM      1  C   UNL     1      34.392   0.794  26.698  0.00  0.00    -0.024 A 
ATOM      2  C   UNL     1      35.737   0.430  26.603  0.00  0.00    +0.000 A 
ATOM      3  C   UNL     1      36.227  -0.650  27.339  0.00  0.00    +0.074 A 
ATOM      4  C   UNL     1      35.363  -1.328  28.205  0.00  0.00    +0.008 A 
ATOM      5  C   UNL     1      34.016  -0.956  28.303  0.00  0.00    -0.049 A 
ATOM      6  C   UNL     1      33.151  -1.664  29.348  0.00  0.00    +0.058 C 
ATOM      7  C   UNL     1      31.784  -0.962  29.554  0.00  0.00    +0.018 C 
ATOM      8  C   UNL     1      31.122  -0.719  28.171  0.00  0.00    +0.000 C 
ATOM      9  C   UNL     1      29.623  -0.264  28.237  0.00  0.00    -0.004 C 
ATOM     10  C   UNL     1      29.025  -0.016  26.804  0.00  0.00    +0.006 C 
ATOM     11  C   UNL     1      28.784  -1.344  26.017  0.00  0.00    -0.039 C 
ATOM     12  C   UNL     1      29.964   0.923  25.989  0.00  0.00    -0.032 C 
ATOM     13  C   UNL     1      31.437   0.441  25.954  0.00  0.00    +0.006 C 
ATOM     14  C   UNL     1      31.980   0.333  27.405  0.00  0.00    +0.030 C 
ATOM     15  C   UNL     1      33.495   0.043  27.468  0.00  0.00    -0.048 A 
ENDROOT
BRANCH   3  16
ATOM     16  O   UNL     1      37.567  -1.024  27.198  0.00  0.00    -0.339 OA
ATOM     17  H   UNL     1      37.813  -1.795  27.697  0.00  0.00    +0.246 HD
ENDBRANCH   3  16
BRANCH   9  18
ATOM     18  C   UNL     1      29.615   1.100  29.000  0.00  0.00    +0.179 C 
BRANCH  18  19
ATOM     19  C   UNL     1      30.788   1.330  29.836  0.00  0.00    +0.089 C 
ATOM     20  N   UNL     1      31.724   1.510  30.492  0.00  0.00    -0.304 NA
ENDBRANCH  18  19
ENDBRANCH   9  18
BRANCH  10  21
ATOM     21  C   UNL     1      27.729   0.768  26.943  0.00  0.00    +0.114 C 
BRANCH  21  22
ATOM     22  O   UNL     1      26.508   0.296  26.941  0.00  0.00    -0.246 OA
ATOM     23  H   UNL     1      25.892   1.011  27.045  0.00  0.00    +0.000 HD
ENDBRANCH  21  22
ENDBRANCH  10  21
TORSDOF 5
ENDMDL
MODEL 18
REMARK minimizedAffinity -4.09896898
REMARK minimizedRMSD -1
REMARK  Name = scaffold
REMARK  6 active torsions:
REMARK  status: ('A' for Active; 'I' for Inactive)
REMARK    1  A    between atoms: C_3  and  O_4
REMARK    2  A    between atoms: C_5  and  C_17
REMARK    3  A    between atoms: C_15  and  C_20
REMARK    4  A    between atoms: C_15  and  C_23
REMARK    5  A    between atoms: C_16  and  C_17
REMARK    6  A    between atoms: C_23  and  O_25
REMARK                            x       y       z     vdW  Elec       q    Type
REMARK                         _______ _______ _______ _____ _____    ______ ____
ROOT
ATOM      1  C   UNL     1      30.571   0.563  29.034  0.00  0.00    -0.024 A 
ATOM      2  C   UNL     1      30.709   1.383  30.157  0.00  0.00    +0.000 A 
ATOM      3  C   UNL     1      31.974   1.639  30.689  0.00  0.00    +0.074 A 
ATOM      4  C   UNL     1      33.089   1.024  30.111  0.00  0.00    +0.008 A 
ATOM      5  C   UNL     1      32.946   0.196  28.990  0.00  0.00    -0.049 A 
ATOM      6  C   UNL     1      34.188  -0.533  28.474  0.00  0.00    +0.058 C 
ATOM      7  C   UNL     1      33.839  -1.629  27.434  0.00  0.00    +0.018 C 
ATOM      8  C   UNL     1      32.903  -1.024  26.352  0.00  0.00    +0.000 C 
ATOM      9  C   UNL     1      32.686  -1.936  25.095  0.00  0.00    -0.004 C 
ATOM     10  C   UNL     1      31.712  -1.272  24.054  0.00  0.00    +0.006 C 
ATOM     11  C   UNL     1      32.368  -0.070  23.302  0.00  0.00    -0.039 C 
ATOM     12  C   UNL     1      30.406  -0.807  24.766  0.00  0.00    -0.032 C 
ATOM     13  C   UNL     1      30.666   0.086  26.006  0.00  0.00    +0.006 C 
ATOM     14  C   UNL     1      31.539  -0.690  27.029  0.00  0.00    +0.030 C 
ATOM     15  C   UNL     1      31.694   0.044  28.377  0.00  0.00    -0.048 A 
ENDROOT
BRANCH   3  16
ATOM     16  O   UNL     1      32.095   2.496  31.787  0.00  0.00    -0.339 OA
ATOM     17  H   UNL     1      32.991   2.655  32.063  0.00  0.00    +0.246 HD
ENDBRANCH   3  16
BRANCH   9  18
ATOM     18  C   UNL     1      32.006  -3.243  25.618  0.00  0.00    +0.179 C 
BRANCH  18  19
ATOM     19  C   UNL     1      32.913  -4.170  26.285  0.00  0.00    +0.089 C 
ATOM     20  N   UNL     1      33.626  -4.911  26.817  0.00  0.00    -0.304 NA
ENDBRANCH  18  19
ENDBRANCH   9  18
BRANCH  10  21
ATOM     21  C   UNL     1      31.251  -2.335  23.068  0.00  0.00    +0.114 C 
BRANCH  21  22
ATOM     22  O   UNL     1      31.961  -2.915  22.134  0.00  0.00    -0.246 OA
ATOM     23  H   UNL     1      31.419  -3.539  21.666  0.00  0.00    +0.000 HD
ENDBRANCH  21  22
ENDBRANCH  10  21
TORSDOF 5
ENDMDL
MODEL 19
REMARK minimizedAffinity -3.95221663
REMARK minimizedRMSD -1
REMARK  Name = scaffold
REMARK  6 active torsions:
REMARK  status: ('A' for Active; 'I' for Inactive)
REMARK    1  A    between atoms: C_3  and  O_4
REMARK    2  A    between atoms: C_5  and  C_17
REMARK    3  A    between atoms: C_15  and  C_20
REMARK    4  A    between atoms: C_15  and  C_23
REMARK    5  A    between atoms: C_16  and  C_17
REMARK    6  A    between atoms: C_23  and  O_25
REMARK                            x       y       z     vdW  Elec       q    Type
REMARK                         _______ _______ _______ _____ _____    ______ ____
ROOT
ATOM      1  C   UNL     1      30.946  -1.461  23.241  0.00  0.00    -0.024 A 
ATOM      2  C   UNL     1      31.883  -1.910  22.306  0.00  0.00    +0.000 A 
ATOM      3  C   UNL     1      33.049  -2.550  22.730  0.00  0.00    +0.074 A 
ATOM      4  C   UNL     1      33.284  -2.690  24.102  0.00  0.00    +0.008 A 
ATOM      5  C   UNL     1      32.345  -2.234  25.036  0.00  0.00    -0.049 A 
ATOM      6  C   UNL     1      32.711  -2.318  26.520  0.00  0.00    +0.058 C 
ATOM      7  C   UNL     1      31.730  -1.518  27.415  0.00  0.00    +0.018 C 
ATOM      8  C   UNL     1      30.272  -1.908  27.048  0.00  0.00    +0.000 C 
ATOM      9  C   UNL     1      29.186  -1.384  28.050  0.00  0.00    -0.004 C 
ATOM     10  C   UNL     1      27.736  -1.796  27.605  0.00  0.00    +0.006 C 
ATOM     11  C   UNL     1      27.457  -3.320  27.807  0.00  0.00    -0.039 C 
ATOM     12  C   UNL     1      27.502  -1.405  26.114  0.00  0.00    -0.032 C 
ATOM     13  C   UNL     1      28.602  -1.937  25.160  0.00  0.00    +0.006 C 
ATOM     14  C   UNL     1      29.985  -1.390  25.607  0.00  0.00    +0.030 C 
ATOM     15  C   UNL     1      31.117  -1.710  24.609  0.00  0.00    -0.048 A 
ENDROOT
BRANCH   3  16
ATOM     16  O   UNL     1      33.953  -3.028  21.778  0.00  0.00    -0.339 OA
ATOM     17  H   UNL     1      34.699  -3.491  22.144  0.00  0.00    +0.246 HD
ENDBRANCH   3  16
BRANCH   9  18
ATOM     18  C   UNL     1      29.272   0.176  28.008  0.00  0.00    +0.179 C 
BRANCH  18  19
ATOM     19  C   UNL     1      30.126   0.760  29.037  0.00  0.00    +0.089 C 
ATOM     20  N   UNL     1      30.805   1.216  29.857  0.00  0.00    -0.304 NA
ENDBRANCH  18  19
ENDBRANCH   9  18
BRANCH  10  21
ATOM     21  C   UNL     1      26.729  -0.959  28.380  0.00  0.00    +0.114 C 
BRANCH  21  22
ATOM     22  O   UNL     1      25.427  -1.092  28.396  0.00  0.00    -0.246 OA
ATOM     23  H   UNL     1      25.048  -0.434  28.966  0.00  0.00    +0.000 HD
ENDBRANCH  21  22
ENDBRANCH  10  21
TORSDOF 5
ENDMDL
