MODEL 1
REMARK minimizedAffinity -8.38292503
REMARK minimizedRMSD -1
REMARK  Name = scaffold
REMARK  6 active torsions:
REMARK  status: ('A' for Active; 'I' for Inactive)
REMARK    1  A    between atoms: C_3  and  O_4
REMARK    2  A    between atoms: C_5  and  C_17
REMARK    3  A    between atoms: C_15  and  C_20
REMARK    4  A    between atoms: C_15  and  C_23
REMARK    5  A    between atoms: C_16  and  C_17
REMARK    6  A    between atoms: C_23  and  O_25
REMARK                            x       y       z     vdW  Elec       q    Type
REMARK                         _______ _______ _______ _____ _____    ______ ____
ROOT
ATOM      1  C   UNL     1      27.526  -1.860  28.032  0.00  0.00    -0.024 A 
ATOM      2  C   UNL     1      26.158  -1.691  27.802  0.00  0.00    +0.000 A 
ATOM      3  C   UNL     1      25.680  -0.504  27.244  0.00  0.00    +0.074 A 
ATOM      4  C   UNL     1      26.584   0.527  26.967  0.00  0.00    +0.008 A 
ATOM      5  C   UNL     1      27.953   0.356  27.205  0.00  0.00    -0.049 A 
ATOM      6  C   UNL     1      28.874   1.559  26.984  0.00  0.00    +0.058 C 
ATOM      7  C   UNL     1      30.294   1.327  27.561  0.00  0.00    +0.018 C 
ATOM      8  C   UNL     1      30.829  -0.043  27.063  0.00  0.00    +0.000 C 
ATOM      9  C   UNL     1      32.352  -0.289  27.344  0.00  0.00    -0.004 C 
ATOM     10  C   UNL     1      32.818  -1.702  26.835  0.00  0.00    +0.006 C 
ATOM     11  C   UNL     1      32.900  -1.780  25.277  0.00  0.00    -0.039 C 
ATOM     12  C   UNL     1      31.861  -2.807  27.374  0.00  0.00    -0.032 C 
ATOM     13  C   UNL     1      30.365  -2.521  27.081  0.00  0.00    +0.006 C 
ATOM     14  C   UNL     1      29.963  -1.162  27.716  0.00  0.00    +0.030 C 
ATOM     15  C   UNL     1      28.448  -0.880  27.642  0.00  0.00    -0.048 A 
ENDROOT
BRANCH   3  16
ATOM     16  O   UNL     1      24.313  -0.372  26.983  0.00  0.00    -0.339 OA
ATOM     17  H   UNL     1      24.072   0.446  26.563  0.00  0.00    +0.246 HD
ENDBRANCH   3  16
BRANCH   9  18
ATOM     18  C   UNL     1      32.517  -0.264  28.898  0.00  0.00    +0.179 C 
BRANCH  18  19
ATOM     19  C   UNL     1      33.355   0.820  29.398  0.00  0.00    +0.089 C 
ATOM     20  N   UNL     1      34.028   1.676  29.792  0.00  0.00    -0.304 NA
ENDBRANCH  18  19
ENDBRANCH   9  18
BRANCH  10  21
ATOM     21  C   UNL     1      34.166  -2.027  27.460  0.00  0.00    +0.114 C 
BRANCH  21  22
ATOM     22  O   UNL     1      35.327  -1.496  27.171  0.00  0.00    -0.246 OA
ATOM     23  H   UNL     1      35.999  -1.887  27.717  0.00  0.00    +0.000 HD
ENDBRANCH  21  22
ENDBRANCH  10  21
TORSDOF 5
ENDMDL
MODEL 2
REMARK minimizedAffinity -7.13979435
REMARK minimizedRMSD -1
REMARK  Name = scaffold
REMARK  6 active torsions:
REMARK  status: ('A' for Active; 'I' for Inactive)
REMARK    1  A    between atoms: C_3  and  O_4
REMARK    2  A    between atoms: C_5  and  C_17
REMARK    3  A    between atoms: C_15  and  C_20
REMARK    4  A    between atoms: C_15  and  C_23
REMARK    5  A    between atoms: C_16  and  C_17
REMARK    6  A    between atoms: C_23  and  O_25
REMARK                            x       y       z     vdW  Elec       q    Type
REMARK                         _______ _______ _______ _____ _____    ______ ____
ROOT
ATOM      1  C   UNL     1      33.940  -0.543  29.009  0.00  0.00    -0.024 A 
ATOM      2  C   UNL     1      35.335  -0.581  28.933  0.00  0.00    +0.000 A 
ATOM      3  C   UNL     1      35.963  -1.109  27.804  0.00  0.00    +0.074 A 
ATOM      4  C   UNL     1      35.177  -1.642  26.777  0.00  0.00    +0.008 A 
ATOM      5  C   UNL     1      33.779  -1.608  26.861  0.00  0.00    -0.049 A 
ATOM      6  C   UNL     1      32.979  -2.305  25.758  0.00  0.00    +0.058 C 
ATOM      7  C   UNL     1      31.479  -2.451  26.121  0.00  0.00    +0.018 C 
ATOM      8  C   UNL     1      30.933  -1.076  26.596  0.00  0.00    +0.000 C 
ATOM      9  C   UNL     1      29.374  -1.008  26.738  0.00  0.00    -0.004 C 
ATOM     10  C   UNL     1      28.895   0.402  27.243  0.00  0.00    +0.006 C 
ATOM     11  C   UNL     1      29.032   1.509  26.149  0.00  0.00    -0.039 C 
ATOM     12  C   UNL     1      29.693   0.812  28.518  0.00  0.00    -0.032 C 
ATOM     13  C   UNL     1      31.230   0.724  28.337  0.00  0.00    +0.006 C 
ATOM     14  C   UNL     1      31.623  -0.728  27.950  0.00  0.00    +0.030 C 
ATOM     15  C   UNL     1      33.148  -0.961  27.932  0.00  0.00    -0.048 A 
ENDROOT
BRANCH   3  16
ATOM     16  O   UNL     1      37.360  -1.099  27.729  0.00  0.00    -0.339 OA
ATOM     17  H   UNL     1      37.710  -1.435  26.912  0.00  0.00    +0.246 HD
ENDBRANCH   3  16
BRANCH   9  18
ATOM     18  C   UNL     1      28.989  -2.060  27.828  0.00  0.00    +0.179 C 
BRANCH  18  19
ATOM     19  C   UNL     1      28.274  -3.225  27.317  0.00  0.00    +0.089 C 
ATOM     20  N   UNL     1      27.707  -4.145  26.903  0.00  0.00    -0.304 NA
ENDBRANCH  18  19
ENDBRANCH   9  18
BRANCH  10  21
ATOM     21  C   UNL     1      27.454   0.290  27.716  0.00  0.00    +0.114 C 
BRANCH  21  22
ATOM     22  O   UNL     1      26.373   0.276  26.977  0.00  0.00    -0.246 OA
ATOM     23  H   UNL     1      25.608   0.197  27.536  0.00  0.00    +0.000 HD
ENDBRANCH  21  22
ENDBRANCH  10  21
TORSDOF 5
ENDMDL
MODEL 3
REMARK minimizedAffinity -6.9234786
REMARK minimizedRMSD -1
REMARK  Name = scaffold
REMARK  6 active torsions:
REMARK  status: ('A' for Active; 'I' for Inactive)
REMARK    1  A    between atoms: C_3  and  O_4
REMARK    2  A    between atoms: C_5  and  C_17
REMARK    3  A    between atoms: C_15  and  C_20
REMARK    4  A    between atoms: C_15  and  C_23
REMARK    5  A    between atoms: C_16  and  C_17
REMARK    6  A    between atoms: C_23  and  O_25
REMARK                            x       y       z     vdW  Elec       q    Type
REMARK                         _______ _______ _______ _____ _____    ______ ____
ROOT
ATOM      1  C   UNL     1      31.775  -1.609  23.209  0.00  0.00    -0.024 A 
ATOM      2  C   UNL     1      32.072  -2.596  22.266  0.00  0.00    +0.000 A 
ATOM      3  C   UNL     1      32.567  -3.835  22.677  0.00  0.00    +0.074 A 
ATOM      4  C   UNL     1      32.805  -4.052  24.038  0.00  0.00    +0.008 A 
ATOM      5  C   UNL     1      32.513  -3.057  24.980  0.00  0.00    -0.049 A 
ATOM      6  C   UNL     1      32.898  -3.316  26.438  0.00  0.00    +0.058 C 
ATOM      7  C   UNL     1      32.796  -2.038  27.310  0.00  0.00    +0.018 C 
ATOM      8  C   UNL     1      31.412  -1.372  27.077  0.00  0.00    +0.000 C 
ATOM      9  C   UNL     1      31.061  -0.227  28.088  0.00  0.00    -0.004 C 
ATOM     10  C   UNL     1      29.659   0.415  27.780  0.00  0.00    +0.006 C 
ATOM     11  C   UNL     1      28.473  -0.531  28.150  0.00  0.00    -0.039 C 
ATOM     12  C   UNL     1      29.574   0.814  26.276  0.00  0.00    -0.032 C 
ATOM     13  C   UNL     1      29.934  -0.345  25.311  0.00  0.00    +0.006 C 
ATOM     14  C   UNL     1      31.375  -0.840  25.612  0.00  0.00    +0.030 C 
ATOM     15  C   UNL     1      31.895  -1.864  24.581  0.00  0.00    -0.048 A 
ENDROOT
BRANCH   3  16
ATOM     16  O   UNL     1      32.818  -4.824  21.721  0.00  0.00    -0.339 OA
ATOM     17  H   UNL     1      33.110  -5.653  22.083  0.00  0.00    +0.246 HD
ENDBRANCH   3  16
BRANCH   9  18
ATOM     18  C   UNL     1      32.147   0.880  27.886  0.00  0.00    +0.179 C 
BRANCH  18  19
ATOM     19  C   UNL     1      32.917   1.195  29.085  0.00  0.00    +0.089 C 
ATOM     20  N   UNL     1      33.530   1.454  30.032  0.00  0.00    -0.304 NA
ENDBRANCH  18  19
ENDBRANCH   9  18
BRANCH  10  21
ATOM     21  C   UNL     1      29.549   1.734  28.530  0.00  0.00    +0.114 C 
BRANCH  21  22
ATOM     22  O   UNL     1      28.554   2.584  28.504  0.00  0.00    -0.246 OA
ATOM     23  H   UNL     1      28.752   3.322  29.068  0.00  0.00    +0.000 HD
ENDBRANCH  21  22
ENDBRANCH  10  21
TORSDOF 5
ENDMDL
MODEL 4
REMARK minimizedAffinity -6.86998749
REMARK minimizedRMSD -1
REMARK  Name = scaffold
REMARK  6 active torsions:
REMARK  status: ('A' for Active; 'I' for Inactive)
REMARK    1  A    between atoms: C_3  and  O_4
REMARK    2  A    between atoms: C_5  and  C_17
REMARK    3  A    between atoms: C_15  and  C_20
REMARK    4  A    between atoms: C_15  and  C_23
REMARK    5  A    between atoms: C_16  and  C_17
REMARK    6  A    between atoms: C_23  and  O_25
REMARK                            x       y       z     vdW  Elec       q    Type
REMARK                         _______ _______ _______ _____ _____    ______ ____
ROOT
ATOM      1  C   UNL     1      32.167  -1.570  23.273  0.00  0.00    -0.024 A 
ATOM      2  C   UNL     1      32.059  -2.506  22.241  0.00  0.00    +0.000 A 
ATOM      3  C   UNL     1      32.262  -3.862  22.498  0.00  0.00    +0.074 A 
ATOM      4  C   UNL     1      32.621  -4.261  23.789  0.00  0.00    +0.008 A 
ATOM      5  C   UNL     1      32.735  -3.320  24.820  0.00  0.00    -0.049 A 
ATOM      6  C   UNL     1      33.238  -3.805  26.182  0.00  0.00    +0.058 C 
ATOM      7  C   UNL     1      33.599  -2.632  27.129  0.00  0.00    +0.018 C 
ATOM      8  C   UNL     1      32.421  -1.620  27.157  0.00  0.00    +0.000 C 
ATOM      9  C   UNL     1      32.529  -0.525  28.274  0.00  0.00    -0.004 C 
ATOM     10  C   UNL     1      31.317   0.476  28.229  0.00  0.00    +0.006 C 
ATOM     11  C   UNL     1      29.987  -0.171  28.730  0.00  0.00    -0.039 C 
ATOM     12  C   UNL     1      31.132   1.025  26.782  0.00  0.00    -0.032 C 
ATOM     13  C   UNL     1      31.036  -0.089  25.709  0.00  0.00    +0.006 C 
ATOM     14  C   UNL     1      32.322  -0.959  25.749  0.00  0.00    +0.030 C 
ATOM     15  C   UNL     1      32.405  -1.977  24.592  0.00  0.00    -0.048 A 
ENDROOT
BRANCH   3  16
ATOM     16  O   UNL     1      32.108  -4.787  21.460  0.00  0.00    -0.339 OA
ATOM     17  H   UNL     1      32.218  -5.693  21.724  0.00  0.00    +0.246 HD
ENDBRANCH   3  16
BRANCH   9  18
ATOM     18  C   UNL     1      33.829   0.285  27.964  0.00  0.00    +0.179 C 
BRANCH  18  19
ATOM     19  C   UNL     1      34.907   0.087  28.927  0.00  0.00    +0.089 C 
ATOM     20  N   UNL     1      35.762  -0.080  29.691  0.00  0.00    -0.304 NA
ENDBRANCH  18  19
ENDBRANCH   9  18
BRANCH  10  21
ATOM     21  C   UNL     1      31.664   1.702  29.060  0.00  0.00    +0.114 C 
BRANCH  21  22
ATOM     22  O   UNL     1      31.748   1.781  30.364  0.00  0.00    -0.246 OA
ATOM     23  H   UNL     1      31.981   2.668  30.613  0.00  0.00    +0.000 HD
ENDBRANCH  21  22
ENDBRANCH  10  21
TORSDOF 5
ENDMDL
MODEL 5
REMARK minimizedAffinity -6.5759716
REMARK minimizedRMSD -1
REMARK  Name = scaffold
REMARK  6 active torsions:
REMARK  status: ('A' for Active; 'I' for Inactive)
REMARK    1  A    between atoms: C_3  and  O_4
REMARK    2  A    between atoms: C_5  and  C_17
REMARK    3  A    between atoms: C_15  and  C_20
REMARK    4  A    between atoms: C_15  and  C_23
REMARK    5  A    between atoms: C_16  and  C_17
REMARK    6  A    between atoms: C_23  and  O_25
REMARK                            x       y       z     vdW  Elec       q    Type
REMARK                         _______ _______ _______ _____ _____    ______ ____
ROOT
ATOM      1  C   UNL     1      32.380  -3.412  17.745  0.00  0.00    -0.024 A 
ATOM      2  C   UNL     1      31.109  -3.936  17.997  0.00  0.00    +0.000 A 
ATOM      3  C   UNL     1      30.576  -3.898  19.286  0.00  0.00    +0.074 A 
ATOM      4  C   UNL     1      31.351  -3.375  20.325  0.00  0.00    +0.008 A 
ATOM      5  C   UNL     1      32.628  -2.858  20.071  0.00  0.00    -0.049 A 
ATOM      6  C   UNL     1      33.467  -2.401  21.266  0.00  0.00    +0.058 C 
ATOM      7  C   UNL     1      34.945  -2.136  20.881  0.00  0.00    +0.018 C 
ATOM      8  C   UNL     1      34.988  -1.220  19.627  0.00  0.00    +0.000 C 
ATOM      9  C   UNL     1      36.408  -0.649  19.285  0.00  0.00    -0.004 C 
ATOM     10  C   UNL     1      36.380   0.249  17.995  0.00  0.00    +0.006 C 
ATOM     11  C   UNL     1      35.678   1.624  18.236  0.00  0.00    -0.039 C 
ATOM     12  C   UNL     1      35.676  -0.511  16.830  0.00  0.00    -0.032 C 
ATOM     13  C   UNL     1      34.280  -1.065  17.212  0.00  0.00    +0.006 C 
ATOM     14  C   UNL     1      34.418  -2.028  18.423  0.00  0.00    +0.030 C 
ATOM     15  C   UNL     1      33.110  -2.776  18.757  0.00  0.00    -0.048 A 
ENDROOT
BRANCH   3  16
ATOM     16  O   UNL     1      29.285  -4.389  19.508  0.00  0.00    -0.339 OA
ATOM     17  H   UNL     1      28.977  -4.288  20.401  0.00  0.00    +0.246 HD
ENDBRANCH   3  16
BRANCH   9  18
ATOM     18  C   UNL     1      37.314  -1.887  18.986  0.00  0.00    +0.179 C 
BRANCH  18  19
ATOM     19  C   UNL     1      38.259  -2.213  20.048  0.00  0.00    +0.089 C 
ATOM     20  N   UNL     1      39.003  -2.475  20.896  0.00  0.00    -0.304 NA
ENDBRANCH  18  19
ENDBRANCH   9  18
BRANCH  10  21
ATOM     21  C   UNL     1      37.807   0.453  17.510  0.00  0.00    +0.114 C 
BRANCH  21  22
ATOM     22  O   UNL     1      38.297   0.158  16.332  0.00  0.00    -0.246 OA
ATOM     23  H   UNL     1      39.217   0.392  16.304  0.00  0.00    +0.000 HD
ENDBRANCH  21  22
ENDBRANCH  10  21
TORSDOF 5
ENDMDL
MODEL 6
REMARK minimizedAffinity -6.50766039
REMARK minimizedRMSD -1
REMARK  Name = scaffold
REMARK  6 active torsions:
REMARK  status: ('A' for Active; 'I' for Inactive)
REMARK    1  A    between atoms: C_3  and  O_4
REMARK    2  A    between atoms: C_5  and  C_17
REMARK    3  A    between atoms: C_15  and  C_20
REMARK    4  A    between atoms: C_15  and  C_23
REMARK    5  A    between atoms: C_16  and  C_17
REMARK    6  A    between atoms: C_23  and  O_25
REMARK                            x       y       z     vdW  Elec       q    Type
REMARK                         _______ _______ _______ _____ _____    ______ ____
ROOT
ATOM      1  C   UNL     1      32.348   1.330  30.036  0.00  0.00    -0.024 A 
ATOM      2  C   UNL     1      33.660   1.711  30.329  0.00  0.00    +0.000 A 
ATOM      3  C   UNL     1      34.715   1.281  29.522  0.00  0.00    +0.074 A 
ATOM      4  C   UNL     1      34.442   0.427  28.449  0.00  0.00    +0.008 A 
ATOM      5  C   UNL     1      33.126   0.042  28.162  0.00  0.00    -0.049 A 
ATOM      6  C   UNL     1      32.906  -0.980  27.043  0.00  0.00    +0.058 C 
ATOM      7  C   UNL     1      31.459  -1.536  27.029  0.00  0.00    +0.018 C 
ATOM      8  C   UNL     1      30.457  -0.350  27.078  0.00  0.00    +0.000 C 
ATOM      9  C   UNL     1      28.966  -0.745  26.798  0.00  0.00    -0.004 C 
ATOM     10  C   UNL     1      28.008   0.499  26.884  0.00  0.00    +0.006 C 
ATOM     11  C   UNL     1      28.175   1.470  25.672  0.00  0.00    -0.039 C 
ATOM     12  C   UNL     1      28.248   1.266  28.219  0.00  0.00    -0.032 C 
ATOM     13  C   UNL     1      29.735   1.631  28.460  0.00  0.00    +0.006 C 
ATOM     14  C   UNL     1      30.591   0.335  28.471  0.00  0.00    +0.030 C 
ATOM     15  C   UNL     1      32.056   0.578  28.891  0.00  0.00    -0.048 A 
ENDROOT
BRANCH   3  16
ATOM     16  O   UNL     1      36.015   1.707  29.809  0.00  0.00    -0.339 OA
ATOM     17  H   UNL     1      36.671   1.409  29.189  0.00  0.00    +0.246 HD
ENDBRANCH   3  16
BRANCH   9  18
ATOM     18  C   UNL     1      28.560  -1.740  27.932  0.00  0.00    +0.179 C 
BRANCH  18  19
ATOM     19  C   UNL     1      28.267  -3.093  27.471  0.00  0.00    +0.089 C 
ATOM     20  N   UNL     1      28.029  -4.164  27.098  0.00  0.00    -0.304 NA
ENDBRANCH  18  19
ENDBRANCH   9  18
BRANCH  10  21
ATOM     21  C   UNL     1      26.572   0.004  26.982  0.00  0.00    +0.114 C 
BRANCH  21  22
ATOM     22  O   UNL     1      25.920  -0.723  26.110  0.00  0.00    -0.246 OA
ATOM     23  H   UNL     1      25.039  -0.884  26.429  0.00  0.00    +0.000 HD
ENDBRANCH  21  22
ENDBRANCH  10  21
TORSDOF 5
ENDMDL
MODEL 7
REMARK minimizedAffinity -6.38717365
REMARK minimizedRMSD -1
REMARK  Name = scaffold
REMARK  6 active torsions:
REMARK  status: ('A' for Active; 'I' for Inactive)
REMARK    1  A    between atoms: C_3  and  O_4
REMARK    2  A    between atoms: C_5  and  C_17
REMARK    3  A    between atoms: C_15  and  C_20
REMARK    4  A    between atoms: C_15  and  C_23
REMARK    5  A    between atoms: C_16  and  C_17
REMARK    6  A    between atoms: C_23  and  O_25
REMARK                            x       y       z     vdW  Elec       q    Type
REMARK                         _______ _______ _______ _____ _____    ______ ____
ROOT
ATOM      1  C   UNL     1      33.862  -0.993  26.434  0.00  0.00    -0.024 A 
ATOM      2  C   UNL     1      35.207  -1.182  26.763  0.00  0.00    +0.000 A 
ATOM      3  C   UNL     1      35.631  -1.059  28.087  0.00  0.00    +0.074 A 
ATOM      4  C   UNL     1      34.699  -0.698  29.066  0.00  0.00    +0.008 A 
ATOM      5  C   UNL     1      33.353  -0.503  28.731  0.00  0.00    -0.049 A 
ATOM      6  C   UNL     1      32.408  -0.002  29.826  0.00  0.00    +0.058 C 
ATOM      7  C   UNL     1      31.038   0.451  29.259  0.00  0.00    +0.018 C 
ATOM      8  C   UNL     1      30.479  -0.660  28.329  0.00  0.00    +0.000 C 
ATOM      9  C   UNL     1      28.984  -0.459  27.901  0.00  0.00    -0.004 C 
ATOM     10  C   UNL     1      28.493  -1.606  26.944  0.00  0.00    +0.006 C 
ATOM     11  C   UNL     1      28.293  -2.964  27.690  0.00  0.00    -0.039 C 
ATOM     12  C   UNL     1      29.498  -1.788  25.767  0.00  0.00    -0.032 C 
ATOM     13  C   UNL     1      30.964  -1.976  26.234  0.00  0.00    +0.006 C 
ATOM     14  C   UNL     1      31.401  -0.747  27.076  0.00  0.00    +0.030 C 
ATOM     15  C   UNL     1      32.904  -0.753  27.427  0.00  0.00    -0.048 A 
ENDROOT
BRANCH   3  16
ATOM     16  O   UNL     1      36.973  -1.293  28.401  0.00  0.00    -0.339 OA
ATOM     17  H   UNL     1      37.174  -1.234  29.328  0.00  0.00    +0.246 HD
ENDBRANCH   3  16
BRANCH   9  18
ATOM     18  C   UNL     1      28.937   0.882  27.100  0.00  0.00    +0.179 C 
BRANCH  18  19
ATOM     19  C   UNL     1      28.438   2.022  27.861  0.00  0.00    +0.089 C 
ATOM     20  N   UNL     1      28.041   2.922  28.472  0.00  0.00    -0.304 NA
ENDBRANCH  18  19
ENDBRANCH   9  18
BRANCH  10  21
ATOM     21  C   UNL     1      27.199  -1.166  26.276  0.00  0.00    +0.114 C 
BRANCH  21  22
ATOM     22  O   UNL     1      26.063  -0.873  26.856  0.00  0.00    -0.246 OA
ATOM     23  H   UNL     1      25.424  -0.629  26.196  0.00  0.00    +0.000 HD
ENDBRANCH  21  22
ENDBRANCH  10  21
TORSDOF 5
ENDMDL
MODEL 8
REMARK minimizedAffinity -6.20211267
REMARK minimizedRMSD -1
REMARK  Name = scaffold
REMARK  6 active torsions:
REMARK  status: ('A' for Active; 'I' for Inactive)
REMARK    1  A    between atoms: C_3  and  O_4
REMARK    2  A    between atoms: C_5  and  C_17
REMARK    3  A    between atoms: C_15  and  C_20
REMARK    4  A    between atoms: C_15  and  C_23
REMARK    5  A    between atoms: C_16  and  C_17
REMARK    6  A    between atoms: C_23  and  O_25
REMARK                            x       y       z     vdW  Elec       q    Type
REMARK                         _______ _______ _______ _____ _____    ______ ____
ROOT
ATOM      1  C   UNL     1      32.681  -3.883  24.719  0.00  0.00    -0.024 A 
ATOM      2  C   UNL     1      32.586  -4.581  23.512  0.00  0.00    +0.000 A 
ATOM      3  C   UNL     1      32.298  -3.901  22.328  0.00  0.00    +0.074 A 
ATOM      4  C   UNL     1      32.058  -2.524  22.378  0.00  0.00    +0.008 A 
ATOM      5  C   UNL     1      32.147  -1.829  23.592  0.00  0.00    -0.049 A 
ATOM      6  C   UNL     1      31.766  -0.347  23.598  0.00  0.00    +0.058 C 
ATOM      7  C   UNL     1      31.622   0.218  25.034  0.00  0.00    +0.018 C 
ATOM      8  C   UNL     1      32.878  -0.168  25.862  0.00  0.00    +0.000 C 
ATOM      9  C   UNL     1      32.996   0.561  27.245  0.00  0.00    -0.004 C 
ATOM     10  C   UNL     1      34.277   0.106  28.036  0.00  0.00    +0.006 C 
ATOM     11  C   UNL     1      35.596   0.668  27.416  0.00  0.00    -0.039 C 
ATOM     12  C   UNL     1      34.340  -1.450  28.102  0.00  0.00    -0.032 C 
ATOM     13  C   UNL     1      34.212  -2.130  26.715  0.00  0.00    +0.006 C 
ATOM     14  C   UNL     1      32.869  -1.714  26.056  0.00  0.00    +0.030 C 
ATOM     15  C   UNL     1      32.564  -2.488  24.756  0.00  0.00    -0.048 A 
ENDROOT
BRANCH   3  16
ATOM     16  O   UNL     1      32.249  -4.611  21.125  0.00  0.00    -0.339 OA
ATOM     17  H   UNL     1      32.092  -4.071  20.358  0.00  0.00    +0.246 HD
ENDBRANCH   3  16
BRANCH   9  18
ATOM     18  C   UNL     1      31.744   0.126  28.074  0.00  0.00    +0.179 C 
BRANCH  18  19
ATOM     19  C   UNL     1      30.802   1.204  28.353  0.00  0.00    +0.089 C 
ATOM     20  N   UNL     1      30.049   2.058  28.566  0.00  0.00    -0.304 NA
ENDBRANCH  18  19
ENDBRANCH   9  18
BRANCH  10  21
ATOM     21  C   UNL     1      34.137   0.544  29.487  0.00  0.00    +0.114 C 
BRANCH  21  22
ATOM     22  O   UNL     1      34.182   1.764  29.958  0.00  0.00    -0.246 OA
ATOM     23  H   UNL     1      34.066   1.744  30.900  0.00  0.00    +0.000 HD
ENDBRANCH  21  22
ENDBRANCH  10  21
TORSDOF 5
ENDMDL
MODEL 9
REMARK minimizedAffinity -5.95976162
REMARK minimizedRMSD -1
REMARK  Name = scaffold
REMARK  6 active torsions:
REMARK  status: ('A' for Active; 'I' for Inactive)
REMARK    1  A    between atoms: C_3  and  O_4
REMARK    2  A    between atoms: C_5  and  C_17
REMARK    3  A    between atoms: C_15  and  C_20
REMARK    4  A    between atoms: C_15  and  C_23
REMARK    5  A    between atoms: C_16  and  C_17
REMARK    6  A    between atoms: C_23  and  O_25
REMARK                            x       y       z     vdW  Elec       q    Type
REMARK                         _______ _______ _______ _____ _____    ______ ____
ROOT
ATOM      1  C   UNL     1      33.166   0.867  26.252  0.00  0.00    -0.024 A 
ATOM      2  C   UNL     1      34.387   1.497  26.511  0.00  0.00    +0.000 A 
ATOM      3  C   UNL     1      34.598   2.145  27.729  0.00  0.00    +0.074 A 
ATOM      4  C   UNL     1      33.556   2.196  28.660  0.00  0.00    +0.008 A 
ATOM      5  C   UNL     1      32.332   1.570  28.394  0.00  0.00    -0.049 A 
ATOM      6  C   UNL     1      31.198   1.755  29.404  0.00  0.00    +0.058 C 
ATOM      7  C   UNL     1      29.832   1.270  28.853  0.00  0.00    +0.018 C 
ATOM      8  C   UNL     1      29.998  -0.159  28.267  0.00  0.00    +0.000 C 
ATOM      9  C   UNL     1      28.651  -0.882  27.920  0.00  0.00    -0.004 C 
ATOM     10  C   UNL     1      28.895  -2.311  27.312  0.00  0.00    +0.006 C 
ATOM     11  C   UNL     1      29.390  -3.340  28.379  0.00  0.00    -0.039 C 
ATOM     12  C   UNL     1      29.919  -2.225  26.140  0.00  0.00    -0.032 C 
ATOM     13  C   UNL     1      31.233  -1.498  26.523  0.00  0.00    +0.006 C 
ATOM     14  C   UNL     1      30.907  -0.058  27.005  0.00  0.00    +0.030 C 
ATOM     15  C   UNL     1      32.164   0.808  27.229  0.00  0.00    -0.048 A 
ENDROOT
BRANCH   3  16
ATOM     16  O   UNL     1      35.841   2.733  27.985  0.00  0.00    -0.339 OA
ATOM     17  H   UNL     1      35.922   3.115  28.852  0.00  0.00    +0.246 HD
ENDBRANCH   3  16
BRANCH   9  18
ATOM     18  C   UNL     1      27.959  -0.009  26.823  0.00  0.00    +0.179 C 
BRANCH  18  19
ATOM     19  C   UNL     1      26.502  -0.079  26.828  0.00  0.00    +0.089 C 
ATOM     20  N   UNL     1      25.345  -0.135  26.822  0.00  0.00    -0.304 NA
ENDBRANCH  18  19
ENDBRANCH   9  18
BRANCH  10  21
ATOM     21  C   UNL     1      27.608  -2.792  26.659  0.00  0.00    +0.114 C 
BRANCH  21  22
ATOM     22  O   UNL     1      27.218  -4.030  26.486  0.00  0.00    -0.246 OA
ATOM     23  H   UNL     1      26.374  -4.037  26.050  0.00  0.00    +0.000 HD
ENDBRANCH  21  22
ENDBRANCH  10  21
TORSDOF 5
ENDMDL
MODEL 10
REMARK minimizedAffinity -5.78342199
REMARK minimizedRMSD -1
REMARK  Name = scaffold
REMARK  6 active torsions:
REMARK  status: ('A' for Active; 'I' for Inactive)
REMARK    1  A    between atoms: C_3  and  O_4
REMARK    2  A    between atoms: C_5  and  C_17
REMARK    3  A    between atoms: C_15  and  C_20
REMARK    4  A    between atoms: C_15  and  C_23
REMARK    5  A    between atoms: C_16  and  C_17
REMARK    6  A    between atoms: C_23  and  O_25
REMARK                            x       y       z     vdW  Elec       q    Type
REMARK                         _______ _______ _______ _____ _____    ______ ____
ROOT
ATOM      1  C   UNL     1      33.563   0.225  29.315  0.00  0.00    -0.024 A 
ATOM      2  C   UNL     1      34.433   1.278  29.611  0.00  0.00    +0.000 A 
ATOM      3  C   UNL     1      34.887   2.121  28.596  0.00  0.00    +0.074 A 
ATOM      4  C   UNL     1      34.497   1.867  27.278  0.00  0.00    +0.008 A 
ATOM      5  C   UNL     1      33.630   0.807  26.983  0.00  0.00    -0.049 A 
ATOM      6  C   UNL     1      33.330   0.514  25.511  0.00  0.00    +0.058 C 
ATOM      7  C   UNL     1      32.611  -0.845  25.316  0.00  0.00    +0.018 C 
ATOM      8  C   UNL     1      31.403  -0.927  26.289  0.00  0.00    +0.000 C 
ATOM      9  C   UNL     1      30.427  -2.124  26.016  0.00  0.00    -0.004 C 
ATOM     10  C   UNL     1      29.243  -2.157  27.050  0.00  0.00    +0.006 C 
ATOM     11  C   UNL     1      28.206  -1.012  26.812  0.00  0.00    -0.039 C 
ATOM     12  C   UNL     1      29.800  -2.077  28.503  0.00  0.00    -0.032 C 
ATOM     13  C   UNL     1      30.765  -0.886  28.728  0.00  0.00    +0.006 C 
ATOM     14  C   UNL     1      31.961  -0.995  27.742  0.00  0.00    +0.030 C 
ATOM     15  C   UNL     1      33.071   0.041  28.016  0.00  0.00    -0.048 A 
ENDROOT
BRANCH   3  16
ATOM     16  O   UNL     1      35.724   3.194  28.920  0.00  0.00    -0.339 OA
ATOM     17  H   UNL     1      35.954   3.748  28.182  0.00  0.00    +0.246 HD
ENDBRANCH   3  16
BRANCH   9  18
ATOM     18  C   UNL     1      31.269  -3.426  26.213  0.00  0.00    +0.179 C 
BRANCH  18  19
ATOM     19  C   UNL     1      32.027  -3.837  25.037  0.00  0.00    +0.089 C 
ATOM     20  N   UNL     1      32.627  -4.173  24.105  0.00  0.00    -0.304 NA
ENDBRANCH  18  19
ENDBRANCH   9  18
BRANCH  10  21
ATOM     21  C   UNL     1      28.566  -3.517  26.975  0.00  0.00    +0.114 C 
BRANCH  21  22
ATOM     22  O   UNL     1      28.183  -4.271  27.974  0.00  0.00    -0.246 OA
ATOM     23  H   UNL     1      27.789  -5.068  27.637  0.00  0.00    +0.000 HD
ENDBRANCH  21  22
ENDBRANCH  10  21
TORSDOF 5
ENDMDL
MODEL 11
REMARK minimizedAffinity -5.72814274
REMARK minimizedRMSD -1
REMARK  Name = scaffold
REMARK  6 active torsions:
REMARK  status: ('A' for Active; 'I' for Inactive)
REMARK    1  A    between atoms: C_3  and  O_4
REMARK    2  A    between atoms: C_5  and  C_17
REMARK    3  A    between atoms: C_15  and  C_20
REMARK    4  A    between atoms: C_15  and  C_23
REMARK    5  A    between atoms: C_16  and  C_17
REMARK    6  A    between atoms: C_23  and  O_25
REMARK                            x       y       z     vdW  Elec       q    Type
REMARK                         _______ _______ _______ _____ _____    ______ ____
ROOT
ATOM      1  C   UNL     1      33.515  -2.835  18.023  0.00  0.00    -0.024 A 
ATOM      2  C   UNL     1      32.853  -3.717  18.880  0.00  0.00    +0.000 A 
ATOM      3  C   UNL     1      33.272  -3.859  20.204  0.00  0.00    +0.074 A 
ATOM      4  C   UNL     1      34.391  -3.143  20.641  0.00  0.00    +0.008 A 
ATOM      5  C   UNL     1      35.057  -2.265  19.777  0.00  0.00    -0.049 A 
ATOM      6  C   UNL     1      36.338  -1.596  20.281  0.00  0.00    +0.058 C 
ATOM      7  C   UNL     1      37.125  -0.897  19.144  0.00  0.00    +0.018 C 
ATOM      8  C   UNL     1      36.155   0.008  18.335  0.00  0.00    +0.000 C 
ATOM      9  C   UNL     1      36.859   0.981  17.328  0.00  0.00    -0.004 C 
ATOM     10  C   UNL     1      35.818   1.848  16.530  0.00  0.00    +0.006 C 
ATOM     11  C   UNL     1      35.150   2.948  17.416  0.00  0.00    -0.039 C 
ATOM     12  C   UNL     1      34.725   0.930  15.906  0.00  0.00    -0.032 C 
ATOM     13  C   UNL     1      34.059  -0.020  16.934  0.00  0.00    +0.006 C 
ATOM     14  C   UNL     1      35.145  -0.916  17.590  0.00  0.00    +0.030 C 
ATOM     15  C   UNL     1      34.558  -2.024  18.489  0.00  0.00    -0.048 A 
ENDROOT
BRANCH   3  16
ATOM     16  O   UNL     1      32.569  -4.715  21.057  0.00  0.00    -0.339 OA
ATOM     17  H   UNL     1      32.888  -4.724  21.953  0.00  0.00    +0.246 HD
ENDBRANCH   3  16
BRANCH   9  18
ATOM     18  C   UNL     1      37.612   0.074  16.301  0.00  0.00    +0.179 C 
BRANCH  18  19
ATOM     19  C   UNL     1      38.953   0.535  15.959  0.00  0.00    +0.089 C 
ATOM     20  N   UNL     1      40.016   0.908  15.691  0.00  0.00    -0.304 NA
ENDBRANCH  18  19
ENDBRANCH   9  18
BRANCH  10  21
ATOM     21  C   UNL     1      36.518   2.475  15.333  0.00  0.00    +0.114 C 
BRANCH  21  22
ATOM     22  O   UNL     1      36.675   3.750  15.081  0.00  0.00    -0.246 OA
ATOM     23  H   UNL     1      37.150   3.855  14.265  0.00  0.00    +0.000 HD
ENDBRANCH  21  22
ENDBRANCH  10  21
TORSDOF 5
ENDMDL
MODEL 12
REMARK minimizedAffinity -5.60043955
REMARK minimizedRMSD -1
REMARK  Name = scaffold
REMARK  6 active torsions:
REMARK  status: ('A' for Active; 'I' for Inactive)
REMARK    1  A    between atoms: C_3  and  O_4
REMARK    2  A    between atoms: C_5  and  C_17
REMARK    3  A    between atoms: C_15  and  C_20
REMARK    4  A    between atoms: C_15  and  C_23
REMARK    5  A    between atoms: C_16  and  C_17
REMARK    6  A    between atoms: C_23  and  O_25
REMARK                            x       y       z     vdW  Elec       q    Type
REMARK                         _______ _______ _______ _____ _____    ______ ____
ROOT
ATOM      1  C   UNL     1      31.331  -2.814  25.264  0.00  0.00    -0.024 A 
ATOM      2  C   UNL     1      32.481  -3.604  25.184  0.00  0.00    +0.000 A 
ATOM      3  C   UNL     1      33.294  -3.778  26.305  0.00  0.00    +0.074 A 
ATOM      4  C   UNL     1      32.966  -3.111  27.490  0.00  0.00    +0.008 A 
ATOM      5  C   UNL     1      31.817  -2.314  27.564  0.00  0.00    -0.049 A 
ATOM      6  C   UNL     1      31.574  -1.525  28.853  0.00  0.00    +0.058 C 
ATOM      7  C   UNL     1      30.449  -0.470  28.694  0.00  0.00    +0.018 C 
ATOM      8  C   UNL     1      29.201  -1.147  28.063  0.00  0.00    +0.000 C 
ATOM      9  C   UNL     1      27.901  -0.272  28.092  0.00  0.00    -0.004 C 
ATOM     10  C   UNL     1      26.687  -1.010  27.418  0.00  0.00    +0.006 C 
ATOM     11  C   UNL     1      26.141  -2.186  28.289  0.00  0.00    -0.039 C 
ATOM     12  C   UNL     1      27.097  -1.535  26.009  0.00  0.00    -0.032 C 
ATOM     13  C   UNL     1      28.391  -2.389  26.024  0.00  0.00    +0.006 C 
ATOM     14  C   UNL     1      29.561  -1.546  26.600  0.00  0.00    +0.030 C 
ATOM     15  C   UNL     1      30.931  -2.245  26.480  0.00  0.00    -0.048 A 
ENDROOT
BRANCH   3  16
ATOM     16  O   UNL     1      34.417  -4.606  26.215  0.00  0.00    -0.339 OA
ATOM     17  H   UNL     1      34.894  -4.709  27.032  0.00  0.00    +0.246 HD
ENDBRANCH   3  16
BRANCH   9  18
ATOM     18  C   UNL     1      28.214   1.003  27.245  0.00  0.00    +0.179 C 
BRANCH  18  19
ATOM     19  C   UNL     1      28.825   2.093  27.999  0.00  0.00    +0.089 C 
ATOM     20  N   UNL     1      29.300   2.961  28.599  0.00  0.00    -0.304 NA
ENDBRANCH  18  19
ENDBRANCH   9  18
BRANCH  10  21
ATOM     21  C   UNL     1      25.589   0.007  27.140  0.00  0.00    +0.114 C 
BRANCH  21  22
ATOM     22  O   UNL     1      24.357  -0.234  26.769  0.00  0.00    -0.246 OA
ATOM     23  H   UNL     1      23.891   0.588  26.668  0.00  0.00    +0.000 HD
ENDBRANCH  21  22
ENDBRANCH  10  21
TORSDOF 5
ENDMDL
MODEL 13
REMARK minimizedAffinity -5.3390131
REMARK minimizedRMSD -1
REMARK  Name = scaffold
REMARK  6 active torsions:
REMARK  status: ('A' for Active; 'I' for Inactive)
REMARK    1  A    between atoms: C_3  and  O_4
REMARK    2  A    between atoms: C_5  and  C_17
REMARK    3  A    between atoms: C_15  and  C_20
REMARK    4  A    between atoms: C_15  and  C_23
REMARK    5  A    between atoms: C_16  and  C_17
REMARK    6  A    between atoms: C_23  and  O_25
REMARK                            x       y       z     vdW  Elec       q    Type
REMARK                         _______ _______ _______ _____ _____    ______ ____
ROOT
ATOM      1  C   UNL     1      32.143  -4.616  23.463  0.00  0.00    -0.024 A 
ATOM      2  C   UNL     1      32.314  -5.152  22.184  0.00  0.00    +0.000 A 
ATOM      3  C   UNL     1      32.594  -4.316  21.102  0.00  0.00    +0.074 A 
ATOM      4  C   UNL     1      32.652  -2.934  21.311  0.00  0.00    +0.008 A 
ATOM      5  C   UNL     1      32.473  -2.399  22.593  0.00  0.00    -0.049 A 
ATOM      6  C   UNL     1      32.438  -0.876  22.736  0.00  0.00    +0.058 C 
ATOM      7  C   UNL     1      31.942  -0.426  24.134  0.00  0.00    +0.018 C 
ATOM      8  C   UNL     1      32.733  -1.197  25.227  0.00  0.00    +0.000 C 
ATOM      9  C   UNL     1      32.530  -0.652  26.683  0.00  0.00    -0.004 C 
ATOM     10  C   UNL     1      33.340  -1.491  27.737  0.00  0.00    +0.006 C 
ATOM     11  C   UNL     1      34.879  -1.235  27.654  0.00  0.00    -0.039 C 
ATOM     12  C   UNL     1      33.043  -3.010  27.553  0.00  0.00    -0.032 C 
ATOM     13  C   UNL     1      33.248  -3.505  26.099  0.00  0.00    +0.006 C 
ATOM     14  C   UNL     1      32.328  -2.699  25.142  0.00  0.00    +0.030 C 
ATOM     15  C   UNL     1      32.322  -3.247  23.700  0.00  0.00    -0.048 A 
ENDROOT
BRANCH   3  16
ATOM     16  O   UNL     1      32.804  -4.877  19.839  0.00  0.00    -0.339 OA
ATOM     17  H   UNL     1      33.034  -4.248  19.164  0.00  0.00    +0.246 HD
ENDBRANCH   3  16
BRANCH   9  18
ATOM     18  C   UNL     1      31.010  -0.823  27.004  0.00  0.00    +0.179 C 
BRANCH  18  19
ATOM     19  C   UNL     1      30.274   0.431  27.123  0.00  0.00    +0.089 C 
ATOM     20  N   UNL     1      29.682   1.422  27.219  0.00  0.00    -0.304 NA
ENDBRANCH  18  19
ENDBRANCH   9  18
BRANCH  10  21
ATOM     21  C   UNL     1      32.816  -1.167  29.128  0.00  0.00    +0.114 C 
BRANCH  21  22
ATOM     22  O   UNL     1      31.798  -1.713  29.743  0.00  0.00    -0.246 OA
ATOM     23  H   UNL     1      31.697  -1.318  30.601  0.00  0.00    +0.000 HD
ENDBRANCH  21  22
ENDBRANCH  10  21
TORSDOF 5
ENDMDL
MODEL 14
REMARK minimizedAffinity -5.2956543
REMARK minimizedRMSD -1
REMARK  Name = scaffold
REMARK  6 active torsions:
REMARK  status: ('A' for Active; 'I' for Inactive)
REMARK    1  A    between atoms: C_3  and  O_4
REMARK    2  A    between atoms: C_5  and  C_17
REMARK    3  A    between atoms: C_15  and  C_20
REMARK    4  A    between atoms: C_15  and  C_23
REMARK    5  A    between atoms: C_16  and  C_17
REMARK    6  A    between atoms: C_23  and  O_25
REMARK                            x       y       z     vdW  Elec       q    Type
REMARK                         _______ _______ _______ _____ _____    ______ ____
ROOT
ATOM      1  C   UNL     1      32.814  -3.879  25.997  0.00  0.00    -0.024 A 
ATOM      2  C   UNL     1      32.480  -3.652  27.335  0.00  0.00    +0.000 A 
ATOM      3  C   UNL     1      31.910  -2.437  27.720  0.00  0.00    +0.074 A 
ATOM      4  C   UNL     1      31.726  -1.439  26.758  0.00  0.00    +0.008 A 
ATOM      5  C   UNL     1      32.068  -1.669  25.419  0.00  0.00    -0.049 A 
ATOM      6  C   UNL     1      31.945  -0.501  24.438  0.00  0.00    +0.058 C 
ATOM      7  C   UNL     1      32.628  -0.799  23.079  0.00  0.00    +0.018 C 
ATOM      8  C   UNL     1      32.147  -2.181  22.559  0.00  0.00    +0.000 C 
ATOM      9  C   UNL     1      32.542  -2.493  21.074  0.00  0.00    -0.004 C 
ATOM     10  C   UNL     1      32.043  -3.914  20.624  0.00  0.00    +0.006 C 
ATOM     11  C   UNL     1      30.495  -3.969  20.421  0.00  0.00    -0.039 C 
ATOM     12  C   UNL     1      32.483  -4.989  21.664  0.00  0.00    -0.032 C 
ATOM     13  C   UNL     1      32.078  -4.639  23.118  0.00  0.00    +0.006 C 
ATOM     14  C   UNL     1      32.707  -3.275  23.517  0.00  0.00    +0.030 C 
ATOM     15  C   UNL     1      32.518  -2.931  25.009  0.00  0.00    -0.048 A 
ENDROOT
BRANCH   3  16
ATOM     16  O   UNL     1      31.545  -2.246  29.056  0.00  0.00    -0.339 OA
ATOM     17  H   UNL     1      31.123  -1.412  29.231  0.00  0.00    +0.246 HD
ENDBRANCH   3  16
BRANCH   9  18
ATOM     18  C   UNL     1      34.105  -2.501  21.033  0.00  0.00    +0.179 C 
BRANCH  18  19
ATOM     19  C   UNL     1      34.682  -1.775  19.907  0.00  0.00    +0.089 C 
ATOM     20  N   UNL     1      35.132  -1.194  19.012  0.00  0.00    -0.304 NA
ENDBRANCH  18  19
ENDBRANCH   9  18
BRANCH  10  21
ATOM     21  C   UNL     1      32.767  -4.304  19.344  0.00  0.00    +0.114 C 
BRANCH  21  22
ATOM     22  O   UNL     1      32.513  -3.890  18.128  0.00  0.00    -0.246 OA
ATOM     23  H   UNL     1      33.121  -4.296  17.522  0.00  0.00    +0.000 HD
ENDBRANCH  21  22
ENDBRANCH  10  21
TORSDOF 5
ENDMDL
MODEL 15
REMARK minimizedAffinity -5.19998837
REMARK minimizedRMSD -1
REMARK  Name = scaffold
REMARK  6 active torsions:
REMARK  status: ('A' for Active; 'I' for Inactive)
REMARK    1  A    between atoms: C_3  and  O_4
REMARK    2  A    between atoms: C_5  and  C_17
REMARK    3  A    between atoms: C_15  and  C_20
REMARK    4  A    between atoms: C_15  and  C_23
REMARK    5  A    between atoms: C_16  and  C_17
REMARK    6  A    between atoms: C_23  and  O_25
REMARK                            x       y       z     vdW  Elec       q    Type
REMARK                         _______ _______ _______ _____ _____    ______ ____
ROOT
ATOM      1  C   UNL     1      29.203  -1.598  27.368  0.00  0.00    -0.024 A 
ATOM      2  C   UNL     1      27.840  -1.809  27.143  0.00  0.00    +0.000 A 
ATOM      3  C   UNL     1      26.938  -0.749  27.241  0.00  0.00    +0.074 A 
ATOM      4  C   UNL     1      27.414   0.513  27.615  0.00  0.00    +0.008 A 
ATOM      5  C   UNL     1      28.780   0.719  27.846  0.00  0.00    -0.049 A 
ATOM      6  C   UNL     1      29.220   2.092  28.358  0.00  0.00    +0.058 C 
ATOM      7  C   UNL     1      30.690   2.094  28.852  0.00  0.00    +0.018 C 
ATOM      8  C   UNL     1      31.592   1.448  27.765  0.00  0.00    +0.000 C 
ATOM      9  C   UNL     1      33.131   1.624  28.007  0.00  0.00    -0.004 C 
ATOM     10  C   UNL     1      33.982   0.929  26.883  0.00  0.00    +0.006 C 
ATOM     11  C   UNL     1      33.918   1.694  25.522  0.00  0.00    -0.039 C 
ATOM     12  C   UNL     1      33.509  -0.543  26.688  0.00  0.00    -0.032 C 
ATOM     13  C   UNL     1      31.982  -0.673  26.459  0.00  0.00    +0.006 C 
ATOM     14  C   UNL     1      31.222  -0.062  27.668  0.00  0.00    +0.030 C 
ATOM     15  C   UNL     1      29.700  -0.314  27.621  0.00  0.00    -0.048 A 
ENDROOT
BRANCH   3  16
ATOM     16  O   UNL     1      25.585  -0.972  26.970  0.00  0.00    -0.339 OA
ATOM     17  H   UNL     1      25.043  -0.192  27.015  0.00  0.00    +0.246 HD
ENDBRANCH   3  16
BRANCH   9  18
ATOM     18  C   UNL     1      33.445   0.903  29.358  0.00  0.00    +0.179 C 
BRANCH  18  19
ATOM     19  C   UNL     1      33.666  -0.534  29.237  0.00  0.00    +0.089 C 
ATOM     20  N   UNL     1      33.833  -1.676  29.143  0.00  0.00    -0.304 NA
ENDBRANCH  18  19
ENDBRANCH   9  18
BRANCH  10  21
ATOM     21  C   UNL     1      35.421   0.807  27.362  0.00  0.00    +0.114 C 
BRANCH  21  22
ATOM     22  O   UNL     1      36.220  -0.222  27.227  0.00  0.00    -0.246 OA
ATOM     23  H   UNL     1      37.061  -0.022  27.621  0.00  0.00    +0.000 HD
ENDBRANCH  21  22
ENDBRANCH  10  21
TORSDOF 5
ENDMDL
MODEL 16
REMARK minimizedAffinity -4.945364
REMARK minimizedRMSD -1
REMARK  Name = scaffold
REMARK  6 active torsions:
REMARK  status: ('A' for Active; 'I' for Inactive)
REMARK    1  A    between atoms: C_3  and  O_4
REMARK    2  A    between atoms: C_5  and  C_17
REMARK    3  A    between atoms: C_15  and  C_20
REMARK    4  A    between atoms: C_15  and  C_23
REMARK    5  A    between atoms: C_16  and  C_17
REMARK    6  A    between atoms: C_23  and  O_25
REMARK                            x       y       z     vdW  Elec       q    Type
REMARK                         _______ _______ _______ _____ _____    ______ ____
ROOT
ATOM      1  C   UNL     1      34.859  -1.391  26.723  0.00  0.00    -0.024 A 
ATOM      2  C   UNL     1      36.167  -1.633  27.150  0.00  0.00    +0.000 A 
ATOM      3  C   UNL     1      36.487  -1.568  28.507  0.00  0.00    +0.074 A 
ATOM      4  C   UNL     1      35.491  -1.211  29.422  0.00  0.00    +0.008 A 
ATOM      5  C   UNL     1      34.182  -0.963  28.989  0.00  0.00    -0.049 A 
ATOM      6  C   UNL     1      33.167  -0.470  30.024  0.00  0.00    +0.058 C 
ATOM      7  C   UNL     1      31.861   0.045  29.368  0.00  0.00    +0.018 C 
ATOM      8  C   UNL     1      31.346  -1.015  28.356  0.00  0.00    +0.000 C 
ATOM      9  C   UNL     1      29.896  -0.753  27.819  0.00  0.00    -0.004 C 
ATOM     10  C   UNL     1      29.450  -1.851  26.786  0.00  0.00    +0.006 C 
ATOM     11  C   UNL     1      29.152  -3.227  27.464  0.00  0.00    -0.039 C 
ATOM     12  C   UNL     1      30.541  -2.025  25.686  0.00  0.00    -0.032 C 
ATOM     13  C   UNL     1      31.959  -2.275  26.260  0.00  0.00    +0.006 C 
ATOM     14  C   UNL     1      32.362  -1.089  27.178  0.00  0.00    +0.030 C 
ATOM     15  C   UNL     1      33.832  -1.155  27.646  0.00  0.00    -0.048 A 
ENDROOT
BRANCH   3  16
ATOM     16  O   UNL     1      37.792  -1.855  28.917  0.00  0.00    -0.339 OA
ATOM     17  H   UNL     1      37.920  -1.834  29.859  0.00  0.00    +0.246 HD
ENDBRANCH   3  16
BRANCH   9  18
ATOM     18  C   UNL     1      29.952   0.615  27.066  0.00  0.00    +0.179 C 
BRANCH  18  19
ATOM     19  C   UNL     1      29.194   1.686  27.703  0.00  0.00    +0.089 C 
ATOM     20  N   UNL     1      28.585   2.535  28.203  0.00  0.00    -0.304 NA
ENDBRANCH  18  19
ENDBRANCH   9  18
BRANCH  10  21
ATOM     21  C   UNL     1      28.228  -1.348  26.034  0.00  0.00    +0.114 C 
BRANCH  21  22
ATOM     22  O   UNL     1      26.979  -1.387  26.426  0.00  0.00    -0.246 OA
ATOM     23  H   UNL     1      26.425  -1.003  25.758  0.00  0.00    +0.000 HD
ENDBRANCH  21  22
ENDBRANCH  10  21
TORSDOF 5
ENDMDL
MODEL 17
REMARK minimizedAffinity -4.41507769
REMARK minimizedRMSD -1
REMARK  Name = scaffold
REMARK  6 active torsions:
REMARK  status: ('A' for Active; 'I' for Inactive)
REMARK    1  A    between atoms: C_3  and  O_4
REMARK    2  A    between atoms: C_5  and  C_17
REMARK    3  A    between atoms: C_15  and  C_20
REMARK    4  A    between atoms: C_15  and  C_23
REMARK    5  A    between atoms: C_16  and  C_17
REMARK    6  A    between atoms: C_23  and  O_25
REMARK                            x       y       z     vdW  Elec       q    Type
REMARK                         _______ _______ _______ _____ _____    ______ ____
ROOT
ATOM      1  C   UNL     1      33.749   1.814  27.357  0.00  0.00    -0.024 A 
ATOM      2  C   UNL     1      34.644   2.316  28.306  0.00  0.00    +0.000 A 
ATOM      3  C   UNL     1      34.972   1.559  29.432  0.00  0.00    +0.074 A 
ATOM      4  C   UNL     1      34.356   0.316  29.616  0.00  0.00    +0.008 A 
ATOM      5  C   UNL     1      33.454  -0.180  28.666  0.00  0.00    -0.049 A 
ATOM      6  C   UNL     1      32.733  -1.492  28.980  0.00  0.00    +0.058 C 
ATOM      7  C   UNL     1      31.562  -1.770  28.002  0.00  0.00    +0.018 C 
ATOM      8  C   UNL     1      32.067  -1.600  26.542  0.00  0.00    +0.000 C 
ATOM      9  C   UNL     1      31.071  -2.110  25.445  0.00  0.00    -0.004 C 
ATOM     10  C   UNL     1      31.636  -1.887  23.995  0.00  0.00    +0.006 C 
ATOM     11  C   UNL     1      32.808  -2.862  23.652  0.00  0.00    -0.039 C 
ATOM     12  C   UNL     1      32.105  -0.411  23.826  0.00  0.00    -0.032 C 
ATOM     13  C   UNL     1      33.083   0.055  24.935  0.00  0.00    +0.006 C 
ATOM     14  C   UNL     1      32.402  -0.094  26.322  0.00  0.00    +0.030 C 
ATOM     15  C   UNL     1      33.225   0.520  27.474  0.00  0.00    -0.048 A 
ENDROOT
BRANCH   3  16
ATOM     16  O   UNL     1      35.901   2.061  30.348  0.00  0.00    -0.339 OA
ATOM     17  H   UNL     1      36.105   1.468  31.063  0.00  0.00    +0.246 HD
ENDBRANCH   3  16
BRANCH   9  18
ATOM     18  C   UNL     1      29.780  -1.242  25.592  0.00  0.00    +0.179 C 
BRANCH  18  19
ATOM     19  C   UNL     1      28.696  -1.891  26.321  0.00  0.00    +0.089 C 
ATOM     20  N   UNL     1      27.833  -2.412  26.892  0.00  0.00    -0.304 NA
ENDBRANCH  18  19
ENDBRANCH   9  18
BRANCH  10  21
ATOM     21  C   UNL     1      30.499  -2.042  22.997  0.00  0.00    +0.114 C 
BRANCH  21  22
ATOM     22  O   UNL     1      30.541  -2.628  21.827  0.00  0.00    -0.246 OA
ATOM     23  H   UNL     1      29.686  -2.578  21.416  0.00  0.00    +0.000 HD
ENDBRANCH  21  22
ENDBRANCH  10  21
TORSDOF 5
ENDMDL
MODEL 18
REMARK minimizedAffinity -4.11926842
REMARK minimizedRMSD -1
REMARK  Name = scaffold
REMARK  6 active torsions:
REMARK  status: ('A' for Active; 'I' for Inactive)
REMARK    1  A    between atoms: C_3  and  O_4
REMARK    2  A    between atoms: C_5  and  C_17
REMARK    3  A    between atoms: C_15  and  C_20
REMARK    4  A    between atoms: C_15  and  C_23
REMARK    5  A    between atoms: C_16  and  C_17
REMARK    6  A    between atoms: C_23  and  O_25
REMARK                            x       y       z     vdW  Elec       q    Type
REMARK                         _______ _______ _______ _____ _____    ______ ____
ROOT
ATOM      1  C   UNL     1      32.678  -1.667  22.911  0.00  0.00    -0.024 A 
ATOM      2  C   UNL     1      32.373  -2.024  24.227  0.00  0.00    +0.000 A 
ATOM      3  C   UNL     1      32.270  -3.369  24.585  0.00  0.00    +0.074 A 
ATOM      4  C   UNL     1      32.429  -4.347  23.597  0.00  0.00    +0.008 A 
ATOM      5  C   UNL     1      32.728  -3.985  22.278  0.00  0.00    -0.049 A 
ATOM      6  C   UNL     1      32.780  -5.095  21.225  0.00  0.00    +0.058 C 
ATOM      7  C   UNL     1      32.822  -4.534  19.780  0.00  0.00    +0.018 C 
ATOM      8  C   UNL     1      33.931  -3.450  19.686  0.00  0.00    +0.000 C 
ATOM      9  C   UNL     1      34.270  -2.990  18.226  0.00  0.00    -0.004 C 
ATOM     10  C   UNL     1      35.382  -1.879  18.209  0.00  0.00    +0.006 C 
ATOM     11  C   UNL     1      36.796  -2.440  18.561  0.00  0.00    -0.039 C 
ATOM     12  C   UNL     1      35.005  -0.730  19.192  0.00  0.00    -0.032 C 
ATOM     13  C   UNL     1      34.671  -1.229  20.621  0.00  0.00    +0.006 C 
ATOM     14  C   UNL     1      33.489  -2.235  20.555  0.00  0.00    +0.030 C 
ATOM     15  C   UNL     1      32.960  -2.643  21.946  0.00  0.00    -0.048 A 
ENDROOT
BRANCH   3  16
ATOM     16  O   UNL     1      32.006  -3.706  25.916  0.00  0.00    -0.339 OA
ATOM     17  H   UNL     1      31.996  -4.641  26.088  0.00  0.00    +0.246 HD
ENDBRANCH   3  16
BRANCH   9  18
ATOM     18  C   UNL     1      32.959  -2.362  17.652  0.00  0.00    +0.179 C 
BRANCH  18  19
ATOM     19  C   UNL     1      32.023  -3.329  17.089  0.00  0.00    +0.089 C 
ATOM     20  N   UNL     1      31.274  -4.089  16.640  0.00  0.00    -0.304 NA
ENDBRANCH  18  19
ENDBRANCH   9  18
BRANCH  10  21
ATOM     21  C   UNL     1      35.392  -1.218  16.838  0.00  0.00    +0.114 C 
BRANCH  21  22
ATOM     22  O   UNL     1      36.178  -1.494  15.828  0.00  0.00    -0.246 OA
ATOM     23  H   UNL     1      35.965  -0.926  15.097  0.00  0.00    +0.000 HD
ENDBRANCH  21  22
ENDBRANCH  10  21
TORSDOF 5
ENDMDL
MODEL 19
REMARK minimizedAffinity 4.51750422
REMARK minimizedRMSD -1
REMARK  Name = scaffold
REMARK  6 active torsions:
REMARK  status: ('A' for Active; 'I' for Inactive)
REMARK    1  A    between atoms: C_3  and  O_4
REMARK    2  A    between atoms: C_5  and  C_17
REMARK    3  A    between atoms: C_15  and  C_20
REMARK    4  A    between atoms: C_15  and  C_23
REMARK    5  A    between atoms: C_16  and  C_17
REMARK    6  A    between atoms: C_23  and  O_25
REMARK                            x       y       z     vdW  Elec       q    Type
REMARK                         _______ _______ _______ _____ _____    ______ ____
ROOT
ATOM      1  C   UNL     1      31.274  -3.664  18.687  0.00  0.00    -0.024 A 
ATOM      2  C   UNL     1      29.888  -3.794  18.807  0.00  0.00    +0.000 A 
ATOM      3  C   UNL     1      29.240  -3.373  19.970  0.00  0.00    +0.074 A 
ATOM      4  C   UNL     1      30.005  -2.866  21.026  0.00  0.00    +0.008 A 
ATOM      5  C   UNL     1      31.395  -2.743  20.904  0.00  0.00    -0.049 A 
ATOM      6  C   UNL     1      32.184  -2.286  22.133  0.00  0.00    +0.058 C 
ATOM      7  C   UNL     1      33.712  -2.478  21.957  0.00  0.00    +0.018 C 
ATOM      8  C   UNL     1      34.149  -1.866  20.598  0.00  0.00    +0.000 C 
ATOM      9  C   UNL     1      35.700  -1.746  20.407  0.00  0.00    -0.004 C 
ATOM     10  C   UNL     1      36.070  -1.140  19.004  0.00  0.00    +0.006 C 
ATOM     11  C   UNL     1      35.750   0.386  18.907  0.00  0.00    -0.039 C 
ATOM     12  C   UNL     1      35.324  -1.914  17.875  0.00  0.00    -0.032 C 
ATOM     13  C   UNL     1      33.794  -2.016  18.107  0.00  0.00    +0.006 C 
ATOM     14  C   UNL     1      33.522  -2.726  19.460  0.00  0.00    +0.030 C 
ATOM     15  C   UNL     1      32.029  -3.044  19.691  0.00  0.00    -0.048 A 
ENDROOT
BRANCH   3  16
ATOM     16  O   UNL     1      27.848  -3.473  20.053  0.00  0.00    -0.339 OA
ATOM     17  H   UNL     1      27.478  -3.125  20.857  0.00  0.00    +0.246 HD
ENDBRANCH   3  16
BRANCH   9  18
ATOM     18  C   UNL     1      36.260  -3.204  20.459  0.00  0.00    +0.179 C 
BRANCH  18  19
ATOM     19  C   UNL     1      35.258  -4.225  20.748  0.00  0.00    +0.089 C 
ATOM     20  N   UNL     1      34.457  -5.028  20.978  0.00  0.00    -0.304 NA
ENDBRANCH  18  19
ENDBRANCH   9  18
BRANCH  10  21
ATOM     21  C   UNL     1      37.544  -1.398  18.732  0.00  0.00    +0.114 C 
BRANCH  21  22
ATOM     22  O   UNL     1      38.561  -0.657  19.091  0.00  0.00    -0.246 OA
ATOM     23  H   UNL     1      39.368  -1.057  18.788  0.00  0.00    +0.000 HD
ENDBRANCH  21  22
ENDBRANCH  10  21
TORSDOF 5
ENDMDL
