MODEL 1
REMARK minimizedAffinity -8.38404274
REMARK minimizedRMSD -1
REMARK  Name = scaffold
REMARK  6 active torsions:
REMARK  status: ('A' for Active; 'I' for Inactive)
REMARK    1  A    between atoms: C_3  and  O_4
REMARK    2  A    between atoms: C_5  and  C_17
REMARK    3  A    between atoms: C_15  and  C_20
REMARK    4  A    between atoms: C_15  and  C_23
REMARK    5  A    between atoms: C_16  and  C_17
REMARK    6  A    between atoms: C_23  and  O_25
REMARK                            x       y       z     vdW  Elec       q    Type
REMARK                         _______ _______ _______ _____ _____    ______ ____
ROOT
ATOM      1  C   UNL     1      27.527  -1.863  28.028  0.00  0.00    -0.024 A 
ATOM      2  C   UNL     1      26.158  -1.694  27.799  0.00  0.00    +0.000 A 
ATOM      3  C   UNL     1      25.680  -0.505  27.246  0.00  0.00    +0.074 A 
ATOM      4  C   UNL     1      26.584   0.526  26.971  0.00  0.00    +0.008 A 
ATOM      5  C   UNL     1      27.954   0.355  27.207  0.00  0.00    -0.049 A 
ATOM      6  C   UNL     1      28.875   1.558  26.988  0.00  0.00    +0.058 C 
ATOM      7  C   UNL     1      30.295   1.324  27.564  0.00  0.00    +0.018 C 
ATOM      8  C   UNL     1      30.829  -0.045  27.061  0.00  0.00    +0.000 C 
ATOM      9  C   UNL     1      32.352  -0.292  27.340  0.00  0.00    -0.004 C 
ATOM     10  C   UNL     1      32.818  -1.703  26.826  0.00  0.00    +0.006 C 
ATOM     11  C   UNL     1      32.898  -1.776  25.267  0.00  0.00    -0.039 C 
ATOM     12  C   UNL     1      31.861  -2.809  27.362  0.00  0.00    -0.032 C 
ATOM     13  C   UNL     1      30.365  -2.523  27.072  0.00  0.00    +0.006 C 
ATOM     14  C   UNL     1      29.964  -1.166  27.712  0.00  0.00    +0.030 C 
ATOM     15  C   UNL     1      28.449  -0.883  27.639  0.00  0.00    -0.048 A 
ENDROOT
BRANCH   3  16
ATOM     16  O   UNL     1      24.313  -0.372  26.987  0.00  0.00    -0.339 OA
ATOM     17  H   UNL     1      24.072   0.448  26.569  0.00  0.00    +0.246 HD
ENDBRANCH   3  16
BRANCH   9  18
ATOM     18  C   UNL     1      32.519  -0.272  28.894  0.00  0.00    +0.179 C 
BRANCH  18  19
ATOM     19  C   UNL     1      33.350   0.817  29.397  0.00  0.00    +0.089 C 
ATOM     20  N   UNL     1      34.017   1.675  29.798  0.00  0.00    -0.304 NA
ENDBRANCH  18  19
ENDBRANCH   9  18
BRANCH  10  21
ATOM     21  C   UNL     1      34.166  -2.031  27.449  0.00  0.00    +0.114 C 
BRANCH  21  22
ATOM     22  O   UNL     1      35.325  -1.491  27.168  0.00  0.00    -0.246 OA
ATOM     23  H   UNL     1      35.998  -1.886  27.710  0.00  0.00    +0.000 HD
ENDBRANCH  21  22
ENDBRANCH  10  21
TORSDOF 5
ENDMDL
MODEL 2
REMARK minimizedAffinity -8.35404396
REMARK minimizedRMSD -1
REMARK  Name = scaffold
REMARK  6 active torsions:
REMARK  status: ('A' for Active; 'I' for Inactive)
REMARK    1  A    between atoms: C_3  and  O_4
REMARK    2  A    between atoms: C_5  and  C_17
REMARK    3  A    between atoms: C_15  and  C_20
REMARK    4  A    between atoms: C_15  and  C_23
REMARK    5  A    between atoms: C_16  and  C_17
REMARK    6  A    between atoms: C_23  and  O_25
REMARK                            x       y       z     vdW  Elec       q    Type
REMARK                         _______ _______ _______ _____ _____    ______ ____
ROOT
ATOM      1  C   UNL     1      28.134   0.301  26.425  0.00  0.00    -0.024 A 
ATOM      2  C   UNL     1      26.755   0.208  26.632  0.00  0.00    +0.000 A 
ATOM      3  C   UNL     1      26.227  -0.840  27.387  0.00  0.00    +0.074 A 
ATOM      4  C   UNL     1      27.093  -1.817  27.889  0.00  0.00    +0.008 A 
ATOM      5  C   UNL     1      28.474  -1.725  27.673  0.00  0.00    -0.049 A 
ATOM      6  C   UNL     1      29.353  -2.882  28.152  0.00  0.00    +0.058 C 
ATOM      7  C   UNL     1      30.797  -2.794  27.594  0.00  0.00    +0.018 C 
ATOM      8  C   UNL     1      31.353  -1.365  27.841  0.00  0.00    +0.000 C 
ATOM      9  C   UNL     1      32.890  -1.210  27.575  0.00  0.00    -0.004 C 
ATOM     10  C   UNL     1      33.379   0.264  27.824  0.00  0.00    +0.006 C 
ATOM     11  C   UNL     1      33.413   0.636  29.340  0.00  0.00    -0.039 C 
ATOM     12  C   UNL     1      32.470   1.266  27.049  0.00  0.00    -0.032 C 
ATOM     13  C   UNL     1      30.959   1.073  27.336  0.00  0.00    +0.006 C 
ATOM     14  C   UNL     1      30.540  -0.374  26.956  0.00  0.00    +0.030 C 
ATOM     15  C   UNL     1      29.016  -0.605  27.028  0.00  0.00    -0.048 A 
ENDROOT
BRANCH   3  16
ATOM     16  O   UNL     1      24.849  -0.891  27.618  0.00  0.00    -0.339 OA
ATOM     17  H   UNL     1      24.572  -1.609  28.177  0.00  0.00    +0.246 HD
ENDBRANCH   3  16
BRANCH   9  18
ATOM     18  C   UNL     1      33.105  -1.534  26.061  0.00  0.00    +0.179 C 
BRANCH  18  19
ATOM     19  C   UNL     1      33.278  -2.953  25.767  0.00  0.00    +0.089 C 
ATOM     20  N   UNL     1      33.410  -4.081  25.541  0.00  0.00    -0.304 NA
ENDBRANCH  18  19
ENDBRANCH   9  18
BRANCH  10  21
ATOM     21  C   UNL     1      34.755   0.436  27.197  0.00  0.00    +0.114 C 
BRANCH  21  22
ATOM     22  O   UNL     1      35.432   1.547  27.056  0.00  0.00    -0.246 OA
ATOM     23  H   UNL     1      36.261   1.361  26.631  0.00  0.00    +0.000 HD
ENDBRANCH  21  22
ENDBRANCH  10  21
TORSDOF 5
ENDMDL
MODEL 3
REMARK minimizedAffinity -8.0082674
REMARK minimizedRMSD -1
REMARK  Name = scaffold
REMARK  6 active torsions:
REMARK  status: ('A' for Active; 'I' for Inactive)
REMARK    1  A    between atoms: C_3  and  O_4
REMARK    2  A    between atoms: C_5  and  C_17
REMARK    3  A    between atoms: C_15  and  C_20
REMARK    4  A    between atoms: C_15  and  C_23
REMARK    5  A    between atoms: C_16  and  C_17
REMARK    6  A    between atoms: C_23  and  O_25
REMARK                            x       y       z     vdW  Elec       q    Type
REMARK                         _______ _______ _______ _____ _____    ______ ____
ROOT
ATOM      1  C   UNL     1      28.688  -1.386  27.018  0.00  0.00    -0.024 A 
ATOM      2  C   UNL     1      27.309  -1.487  26.811  0.00  0.00    +0.000 A 
ATOM      3  C   UNL     1      26.496  -0.359  26.932  0.00  0.00    +0.074 A 
ATOM      4  C   UNL     1      27.075   0.857  27.309  0.00  0.00    +0.008 A 
ATOM      5  C   UNL     1      28.456   0.953  27.522  0.00  0.00    -0.049 A 
ATOM      6  C   UNL     1      29.011   2.282  28.039  0.00  0.00    +0.058 C 
ATOM      7  C   UNL     1      30.483   2.163  28.510  0.00  0.00    +0.018 C 
ATOM      8  C   UNL     1      31.316   1.458  27.404  0.00  0.00    +0.000 C 
ATOM      9  C   UNL     1      32.868   1.510  27.625  0.00  0.00    -0.004 C 
ATOM     10  C   UNL     1      33.644   0.761  26.482  0.00  0.00    +0.006 C 
ATOM     11  C   UNL     1      33.622   1.542  25.129  0.00  0.00    -0.039 C 
ATOM     12  C   UNL     1      33.054  -0.668  26.283  0.00  0.00    -0.032 C 
ATOM     13  C   UNL     1      31.518  -0.674  26.075  0.00  0.00    +0.006 C 
ATOM     14  C   UNL     1      30.827  -0.017  27.301  0.00  0.00    +0.030 C 
ATOM     15  C   UNL     1      29.289  -0.147  27.274  0.00  0.00    -0.048 A 
ENDROOT
BRANCH   3  16
ATOM     16  O   UNL     1      25.126  -0.473  26.680  0.00  0.00    -0.339 OA
ATOM     17  H   UNL     1      24.647   0.347  26.739  0.00  0.00    +0.246 HD
ENDBRANCH   3  16
BRANCH   9  18
ATOM     18  C   UNL     1      33.142   0.753  28.964  0.00  0.00    +0.179 C 
BRANCH  18  19
ATOM     19  C   UNL     1      34.311   1.228  29.697  0.00  0.00    +0.089 C 
ATOM     20  N   UNL     1      35.239   1.613  30.273  0.00  0.00    -0.304 NA
ENDBRANCH  18  19
ENDBRANCH   9  18
BRANCH  10  21
ATOM     21  C   UNL     1      35.076   0.521  26.939  0.00  0.00    +0.114 C 
BRANCH  21  22
ATOM     22  O   UNL     1      36.107   1.311  26.775  0.00  0.00    -0.246 OA
ATOM     23  H   UNL     1      36.877   0.910  27.160  0.00  0.00    +0.000 HD
ENDBRANCH  21  22
ENDBRANCH  10  21
TORSDOF 5
ENDMDL
MODEL 4
REMARK minimizedAffinity -7.30333185
REMARK minimizedRMSD -1
REMARK  Name = scaffold
REMARK  6 active torsions:
REMARK  status: ('A' for Active; 'I' for Inactive)
REMARK    1  A    between atoms: C_3  and  O_4
REMARK    2  A    between atoms: C_5  and  C_17
REMARK    3  A    between atoms: C_15  and  C_20
REMARK    4  A    between atoms: C_15  and  C_23
REMARK    5  A    between atoms: C_16  and  C_17
REMARK    6  A    between atoms: C_23  and  O_25
REMARK                            x       y       z     vdW  Elec       q    Type
REMARK                         _______ _______ _______ _____ _____    ______ ____
ROOT
ATOM      1  C   UNL     1      28.970   0.581  26.314  0.00  0.00    -0.024 A 
ATOM      2  C   UNL     1      27.589   0.373  26.280  0.00  0.00    +0.000 A 
ATOM      3  C   UNL     1      27.016  -0.663  27.018  0.00  0.00    +0.074 A 
ATOM      4  C   UNL     1      27.849  -1.515  27.751  0.00  0.00    +0.008 A 
ATOM      5  C   UNL     1      29.234  -1.307  27.778  0.00  0.00    -0.049 A 
ATOM      6  C   UNL     1      30.099  -2.337  28.507  0.00  0.00    +0.058 C 
ATOM      7  C   UNL     1      31.609  -2.154  28.210  0.00  0.00    +0.018 C 
ATOM      8  C   UNL     1      31.994  -0.664  28.425  0.00  0.00    +0.000 C 
ATOM      9  C   UNL     1      33.536  -0.382  28.424  0.00  0.00    -0.004 C 
ATOM     10  C   UNL     1      33.850   1.145  28.624  0.00  0.00    +0.006 C 
ATOM     11  C   UNL     1      33.572   1.628  30.084  0.00  0.00    -0.039 C 
ATOM     12  C   UNL     1      33.023   1.997  27.614  0.00  0.00    -0.032 C 
ATOM     13  C   UNL     1      31.505   1.683  27.643  0.00  0.00    +0.006 C 
ATOM     14  C   UNL     1      31.282   0.179  27.324  0.00  0.00    +0.030 C 
ATOM     15  C   UNL     1      29.795  -0.190  27.143  0.00  0.00    -0.048 A 
ENDROOT
BRANCH   3  16
ATOM     16  O   UNL     1      25.627  -0.829  27.004  0.00  0.00    -0.339 OA
ATOM     17  H   UNL     1      25.310  -1.527  27.566  0.00  0.00    +0.246 HD
ENDBRANCH   3  16
BRANCH   9  18
ATOM     18  C   UNL     1      34.053  -0.794  27.008  0.00  0.00    +0.179 C 
BRANCH  18  19
ATOM     19  C   UNL     1      35.433  -1.266  26.983  0.00  0.00    +0.089 C 
ATOM     20  N   UNL     1      36.532  -1.632  26.961  0.00  0.00    -0.304 NA
ENDBRANCH  18  19
ENDBRANCH   9  18
BRANCH  10  21
ATOM     21  C   UNL     1      35.299   1.401  28.241  0.00  0.00    +0.114 C 
BRANCH  21  22
ATOM     22  O   UNL     1      35.765   1.727  27.061  0.00  0.00    -0.246 OA
ATOM     23  H   UNL     1      36.709   1.825  27.109  0.00  0.00    +0.000 HD
ENDBRANCH  21  22
ENDBRANCH  10  21
TORSDOF 5
ENDMDL
MODEL 5
REMARK minimizedAffinity -7.14241791
REMARK minimizedRMSD -1
REMARK  Name = scaffold
REMARK  6 active torsions:
REMARK  status: ('A' for Active; 'I' for Inactive)
REMARK    1  A    between atoms: C_3  and  O_4
REMARK    2  A    between atoms: C_5  and  C_17
REMARK    3  A    between atoms: C_15  and  C_20
REMARK    4  A    between atoms: C_15  and  C_23
REMARK    5  A    between atoms: C_16  and  C_17
REMARK    6  A    between atoms: C_23  and  O_25
REMARK                            x       y       z     vdW  Elec       q    Type
REMARK                         _______ _______ _______ _____ _____    ______ ____
ROOT
ATOM      1  C   UNL     1      33.974  -0.514  29.010  0.00  0.00    -0.024 A 
ATOM      2  C   UNL     1      35.369  -0.557  28.933  0.00  0.00    +0.000 A 
ATOM      3  C   UNL     1      35.994  -1.106  27.813  0.00  0.00    +0.074 A 
ATOM      4  C   UNL     1      35.205  -1.654  26.796  0.00  0.00    +0.008 A 
ATOM      5  C   UNL     1      33.808  -1.616  26.880  0.00  0.00    -0.049 A 
ATOM      6  C   UNL     1      33.005  -2.329  25.790  0.00  0.00    +0.058 C 
ATOM      7  C   UNL     1      31.505  -2.465  26.157  0.00  0.00    +0.018 C 
ATOM      8  C   UNL     1      30.963  -1.081  26.609  0.00  0.00    +0.000 C 
ATOM      9  C   UNL     1      29.404  -1.006  26.751  0.00  0.00    -0.004 C 
ATOM     10  C   UNL     1      28.930   0.414  27.232  0.00  0.00    +0.006 C 
ATOM     11  C   UNL     1      29.068   1.501  26.119  0.00  0.00    -0.039 C 
ATOM     12  C   UNL     1      29.729   0.843  28.499  0.00  0.00    -0.032 C 
ATOM     13  C   UNL     1      31.266   0.748  28.318  0.00  0.00    +0.006 C 
ATOM     14  C   UNL     1      31.655  -0.712  27.956  0.00  0.00    +0.030 C 
ATOM     15  C   UNL     1      33.180  -0.949  27.941  0.00  0.00    -0.048 A 
ENDROOT
BRANCH   3  16
ATOM     16  O   UNL     1      37.390  -1.101  27.737  0.00  0.00    -0.339 OA
ATOM     17  H   UNL     1      37.739  -1.452  26.925  0.00  0.00    +0.246 HD
ENDBRANCH   3  16
BRANCH   9  18
ATOM     18  C   UNL     1      29.018  -2.039  27.860  0.00  0.00    +0.179 C 
BRANCH  18  19
ATOM     19  C   UNL     1      28.298  -3.209  27.369  0.00  0.00    +0.089 C 
ATOM     20  N   UNL     1      27.720  -4.132  26.975  0.00  0.00    -0.304 NA
ENDBRANCH  18  19
ENDBRANCH   9  18
BRANCH  10  21
ATOM     21  C   UNL     1      27.488   0.313  27.708  0.00  0.00    +0.114 C 
BRANCH  21  22
ATOM     22  O   UNL     1      26.404   0.332  26.973  0.00  0.00    -0.246 OA
ATOM     23  H   UNL     1      25.641   0.252  27.533  0.00  0.00    +0.000 HD
ENDBRANCH  21  22
ENDBRANCH  10  21
TORSDOF 5
ENDMDL
MODEL 6
REMARK minimizedAffinity -6.93524837
REMARK minimizedRMSD -1
REMARK  Name = scaffold
REMARK  6 active torsions:
REMARK  status: ('A' for Active; 'I' for Inactive)
REMARK    1  A    between atoms: C_3  and  O_4
REMARK    2  A    between atoms: C_5  and  C_17
REMARK    3  A    between atoms: C_15  and  C_20
REMARK    4  A    between atoms: C_15  and  C_23
REMARK    5  A    between atoms: C_16  and  C_17
REMARK    6  A    between atoms: C_23  and  O_25
REMARK                            x       y       z     vdW  Elec       q    Type
REMARK                         _______ _______ _______ _____ _____    ______ ____
ROOT
ATOM      1  C   UNL     1      31.776  -1.631  23.181  0.00  0.00    -0.024 A 
ATOM      2  C   UNL     1      32.069  -2.613  22.232  0.00  0.00    +0.000 A 
ATOM      3  C   UNL     1      32.570  -3.852  22.634  0.00  0.00    +0.074 A 
ATOM      4  C   UNL     1      32.818  -4.075  23.993  0.00  0.00    +0.008 A 
ATOM      5  C   UNL     1      32.529  -3.085  24.941  0.00  0.00    -0.049 A 
ATOM      6  C   UNL     1      32.924  -3.349  26.395  0.00  0.00    +0.058 C 
ATOM      7  C   UNL     1      32.824  -2.075  27.273  0.00  0.00    +0.018 C 
ATOM      8  C   UNL     1      31.437  -1.412  27.052  0.00  0.00    +0.000 C 
ATOM      9  C   UNL     1      31.090  -0.272  28.071  0.00  0.00    -0.004 C 
ATOM     10  C   UNL     1      29.685   0.367  27.775  0.00  0.00    +0.006 C 
ATOM     11  C   UNL     1      28.503  -0.583  28.148  0.00  0.00    -0.039 C 
ATOM     12  C   UNL     1      29.588   0.773  26.273  0.00  0.00    -0.032 C 
ATOM     13  C   UNL     1      29.946  -0.380  25.301  0.00  0.00    +0.006 C 
ATOM     14  C   UNL     1      31.389  -0.874  25.591  0.00  0.00    +0.030 C 
ATOM     15  C   UNL     1      31.905  -1.892  24.551  0.00  0.00    -0.048 A 
ENDROOT
BRANCH   3  16
ATOM     16  O   UNL     1      32.817  -4.836  21.672  0.00  0.00    -0.339 OA
ATOM     17  H   UNL     1      33.114  -5.666  22.029  0.00  0.00    +0.246 HD
ENDBRANCH   3  16
BRANCH   9  18
ATOM     18  C   UNL     1      32.172   0.838  27.867  0.00  0.00    +0.179 C 
BRANCH  18  19
ATOM     19  C   UNL     1      32.940   1.159  29.065  0.00  0.00    +0.089 C 
ATOM     20  N   UNL     1      33.549   1.424  30.014  0.00  0.00    -0.304 NA
ENDBRANCH  18  19
ENDBRANCH   9  18
BRANCH  10  21
ATOM     21  C   UNL     1      29.576   1.682  28.532  0.00  0.00    +0.114 C 
BRANCH  21  22
ATOM     22  O   UNL     1      28.590   2.543  28.494  0.00  0.00    -0.246 OA
ATOM     23  H   UNL     1      28.787   3.276  29.066  0.00  0.00    +0.000 HD
ENDBRANCH  21  22
ENDBRANCH  10  21
TORSDOF 5
ENDMDL
MODEL 7
REMARK minimizedAffinity -6.49831486
REMARK minimizedRMSD -1
REMARK  Name = scaffold
REMARK  6 active torsions:
REMARK  status: ('A' for Active; 'I' for Inactive)
REMARK    1  A    between atoms: C_3  and  O_4
REMARK    2  A    between atoms: C_5  and  C_17
REMARK    3  A    between atoms: C_15  and  C_20
REMARK    4  A    between atoms: C_15  and  C_23
REMARK    5  A    between atoms: C_16  and  C_17
REMARK    6  A    between atoms: C_23  and  O_25
REMARK                            x       y       z     vdW  Elec       q    Type
REMARK                         _______ _______ _______ _____ _____    ______ ____
ROOT
ATOM      1  C   UNL     1      32.327   1.313  30.041  0.00  0.00    -0.024 A 
ATOM      2  C   UNL     1      33.639   1.704  30.321  0.00  0.00    +0.000 A 
ATOM      3  C   UNL     1      34.686   1.291  29.496  0.00  0.00    +0.074 A 
ATOM      4  C   UNL     1      34.407   0.444  28.419  0.00  0.00    +0.008 A 
ATOM      5  C   UNL     1      33.092   0.048  28.146  0.00  0.00    -0.049 A 
ATOM      6  C   UNL     1      32.867  -0.966  27.022  0.00  0.00    +0.058 C 
ATOM      7  C   UNL     1      31.425  -1.536  27.022  0.00  0.00    +0.018 C 
ATOM      8  C   UNL     1      30.413  -0.360  27.094  0.00  0.00    +0.000 C 
ATOM      9  C   UNL     1      28.922  -0.768  26.831  0.00  0.00    -0.004 C 
ATOM     10  C   UNL     1      27.952   0.465  26.941  0.00  0.00    +0.006 C 
ATOM     11  C   UNL     1      28.093   1.449  25.735  0.00  0.00    -0.039 C 
ATOM     12  C   UNL     1      28.203   1.224  28.279  0.00  0.00    -0.032 C 
ATOM     13  C   UNL     1      29.689   1.601  28.503  0.00  0.00    +0.006 C 
ATOM     14  C   UNL     1      30.558   0.314  28.491  0.00  0.00    +0.030 C 
ATOM     15  C   UNL     1      32.026   0.567  28.894  0.00  0.00    -0.048 A 
ENDROOT
BRANCH   3  16
ATOM     16  O   UNL     1      35.986   1.728  29.769  0.00  0.00    -0.339 OA
ATOM     17  H   UNL     1      36.636   1.441  29.137  0.00  0.00    +0.246 HD
ENDBRANCH   3  16
BRANCH   9  18
ATOM     18  C   UNL     1      28.540  -1.777  27.962  0.00  0.00    +0.179 C 
BRANCH  18  19
ATOM     19  C   UNL     1      28.251  -3.128  27.492  0.00  0.00    +0.089 C 
ATOM     20  N   UNL     1      28.027  -4.198  27.112  0.00  0.00    -0.304 NA
ENDBRANCH  18  19
ENDBRANCH   9  18
BRANCH  10  21
ATOM     21  C   UNL     1      26.523  -0.044  27.054  0.00  0.00    +0.114 C 
BRANCH  21  22
ATOM     22  O   UNL     1      25.728  -0.408  26.079  0.00  0.00    -0.246 OA
ATOM     23  H   UNL     1      24.893  -0.683  26.438  0.00  0.00    +0.000 HD
ENDBRANCH  21  22
ENDBRANCH  10  21
TORSDOF 5
ENDMDL
MODEL 8
REMARK minimizedAffinity -6.37352371
REMARK minimizedRMSD -1
REMARK  Name = scaffold
REMARK  6 active torsions:
REMARK  status: ('A' for Active; 'I' for Inactive)
REMARK    1  A    between atoms: C_3  and  O_4
REMARK    2  A    between atoms: C_5  and  C_17
REMARK    3  A    between atoms: C_15  and  C_20
REMARK    4  A    between atoms: C_15  and  C_23
REMARK    5  A    between atoms: C_16  and  C_17
REMARK    6  A    between atoms: C_23  and  O_25
REMARK                            x       y       z     vdW  Elec       q    Type
REMARK                         _______ _______ _______ _____ _____    ______ ____
ROOT
ATOM      1  C   UNL     1      33.847  -0.999  26.425  0.00  0.00    -0.024 A 
ATOM      2  C   UNL     1      35.193  -1.185  26.752  0.00  0.00    +0.000 A 
ATOM      3  C   UNL     1      35.619  -1.061  28.075  0.00  0.00    +0.074 A 
ATOM      4  C   UNL     1      34.690  -0.701  29.056  0.00  0.00    +0.008 A 
ATOM      5  C   UNL     1      33.342  -0.509  28.724  0.00  0.00    -0.049 A 
ATOM      6  C   UNL     1      32.398  -0.010  29.820  0.00  0.00    +0.058 C 
ATOM      7  C   UNL     1      31.026   0.440  29.256  0.00  0.00    +0.018 C 
ATOM      8  C   UNL     1      30.467  -0.673  28.328  0.00  0.00    +0.000 C 
ATOM      9  C   UNL     1      28.971  -0.475  27.902  0.00  0.00    -0.004 C 
ATOM     10  C   UNL     1      28.480  -1.624  26.947  0.00  0.00    +0.006 C 
ATOM     11  C   UNL     1      28.285  -2.982  27.695  0.00  0.00    -0.039 C 
ATOM     12  C   UNL     1      29.484  -1.804  25.769  0.00  0.00    -0.032 C 
ATOM     13  C   UNL     1      30.951  -1.989  26.233  0.00  0.00    +0.006 C 
ATOM     14  C   UNL     1      31.387  -0.758  27.073  0.00  0.00    +0.030 C 
ATOM     15  C   UNL     1      32.891  -0.761  27.421  0.00  0.00    -0.048 A 
ENDROOT
BRANCH   3  16
ATOM     16  O   UNL     1      36.963  -1.292  28.386  0.00  0.00    -0.339 OA
ATOM     17  H   UNL     1      37.166  -1.232  29.313  0.00  0.00    +0.246 HD
ENDBRANCH   3  16
BRANCH   9  18
ATOM     18  C   UNL     1      28.920   0.866  27.101  0.00  0.00    +0.179 C 
BRANCH  18  19
ATOM     19  C   UNL     1      28.422   2.005  27.863  0.00  0.00    +0.089 C 
ATOM     20  N   UNL     1      28.018   2.906  28.468  0.00  0.00    -0.304 NA
ENDBRANCH  18  19
ENDBRANCH   9  18
BRANCH  10  21
ATOM     21  C   UNL     1      27.185  -1.186  26.281  0.00  0.00    +0.114 C 
BRANCH  21  22
ATOM     22  O   UNL     1      26.049  -0.896  26.864  0.00  0.00    -0.246 OA
ATOM     23  H   UNL     1      25.408  -0.654  26.205  0.00  0.00    +0.000 HD
ENDBRANCH  21  22
ENDBRANCH  10  21
TORSDOF 5
ENDMDL
MODEL 9
REMARK minimizedAffinity -6.17535448
REMARK minimizedRMSD -1
REMARK  Name = scaffold
REMARK  6 active torsions:
REMARK  status: ('A' for Active; 'I' for Inactive)
REMARK    1  A    between atoms: C_3  and  O_4
REMARK    2  A    between atoms: C_5  and  C_17
REMARK    3  A    between atoms: C_15  and  C_20
REMARK    4  A    between atoms: C_15  and  C_23
REMARK    5  A    between atoms: C_16  and  C_17
REMARK    6  A    between atoms: C_23  and  O_25
REMARK                            x       y       z     vdW  Elec       q    Type
REMARK                         _______ _______ _______ _____ _____    ______ ____
ROOT
ATOM      1  C   UNL     1      33.782   0.240  29.313  0.00  0.00    -0.024 A 
ATOM      2  C   UNL     1      34.643   1.315  29.547  0.00  0.00    +0.000 A 
ATOM      3  C   UNL     1      34.998   2.172  28.504  0.00  0.00    +0.074 A 
ATOM      4  C   UNL     1      34.517   1.908  27.217  0.00  0.00    +0.008 A 
ATOM      5  C   UNL     1      33.660   0.825  26.985  0.00  0.00    -0.049 A 
ATOM      6  C   UNL     1      33.259   0.526  25.539  0.00  0.00    +0.058 C 
ATOM      7  C   UNL     1      32.564  -0.852  25.393  0.00  0.00    +0.018 C 
ATOM      8  C   UNL     1      31.435  -0.968  26.453  0.00  0.00    +0.000 C 
ATOM      9  C   UNL     1      30.474  -2.190  26.251  0.00  0.00    -0.004 C 
ATOM     10  C   UNL     1      29.371  -2.257  27.370  0.00  0.00    +0.006 C 
ATOM     11  C   UNL     1      28.290  -1.140  27.213  0.00  0.00    -0.039 C 
ATOM     12  C   UNL     1      30.033  -2.164  28.778  0.00  0.00    -0.032 C 
ATOM     13  C   UNL     1      30.980  -0.946  28.933  0.00  0.00    +0.006 C 
ATOM     14  C   UNL     1      32.101  -1.022  27.861  0.00  0.00    +0.030 C 
ATOM     15  C   UNL     1      33.201   0.044  28.054  0.00  0.00    -0.048 A 
ENDROOT
BRANCH   3  16
ATOM     16  O   UNL     1      35.827   3.267  28.768  0.00  0.00    -0.339 OA
ATOM     17  H   UNL     1      35.986   3.827  28.017  0.00  0.00    +0.246 HD
ENDBRANCH   3  16
BRANCH   9  18
ATOM     18  C   UNL     1      31.363  -3.469  26.380  0.00  0.00    +0.179 C 
BRANCH  18  19
ATOM     19  C   UNL     1      32.041  -3.859  25.149  0.00  0.00    +0.089 C 
ATOM     20  N   UNL     1      32.586  -4.163  24.173  0.00  0.00    -0.304 NA
ENDBRANCH  18  19
ENDBRANCH   9  18
BRANCH  10  21
ATOM     21  C   UNL     1      28.728  -3.635  27.342  0.00  0.00    +0.114 C 
BRANCH  21  22
ATOM     22  O   UNL     1      27.629  -3.988  26.724  0.00  0.00    -0.246 OA
ATOM     23  H   UNL     1      27.462  -4.911  26.878  0.00  0.00    +0.000 HD
ENDBRANCH  21  22
ENDBRANCH  10  21
TORSDOF 5
ENDMDL
MODEL 10
REMARK minimizedAffinity -5.98767138
REMARK minimizedRMSD -1
REMARK  Name = scaffold
REMARK  6 active torsions:
REMARK  status: ('A' for Active; 'I' for Inactive)
REMARK    1  A    between atoms: C_3  and  O_4
REMARK    2  A    between atoms: C_5  and  C_17
REMARK    3  A    between atoms: C_15  and  C_20
REMARK    4  A    between atoms: C_15  and  C_23
REMARK    5  A    between atoms: C_16  and  C_17
REMARK    6  A    between atoms: C_23  and  O_25
REMARK                            x       y       z     vdW  Elec       q    Type
REMARK                         _______ _______ _______ _____ _____    ______ ____
ROOT
ATOM      1  C   UNL     1      28.503   0.869  27.788  0.00  0.00    -0.024 A 
ATOM      2  C   UNL     1      27.146   0.709  27.496  0.00  0.00    +0.000 A 
ATOM      3  C   UNL     1      26.734  -0.257  26.577  0.00  0.00    +0.074 A 
ATOM      4  C   UNL     1      27.701  -1.023  25.919  0.00  0.00    +0.008 A 
ATOM      5  C   UNL     1      29.061  -0.854  26.208  0.00  0.00    -0.049 A 
ATOM      6  C   UNL     1      30.074  -1.644  25.376  0.00  0.00    +0.058 C 
ATOM      7  C   UNL     1      31.527  -1.148  25.591  0.00  0.00    +0.018 C 
ATOM      8  C   UNL     1      31.815  -1.060  27.115  0.00  0.00    +0.000 C 
ATOM      9  C   UNL     1      33.323  -0.834  27.481  0.00  0.00    -0.004 C 
ATOM     10  C   UNL     1      33.537  -0.734  29.036  0.00  0.00    +0.006 C 
ATOM     11  C   UNL     1      33.374  -2.112  29.754  0.00  0.00    -0.039 C 
ATOM     12  C   UNL     1      32.547   0.304  29.645  0.00  0.00    -0.032 C 
ATOM     13  C   UNL     1      31.069   0.049  29.253  0.00  0.00    +0.006 C 
ATOM     14  C   UNL     1      30.931   0.078  27.706  0.00  0.00    +0.030 C 
ATOM     15  C   UNL     1      29.466   0.022  27.225  0.00  0.00    -0.048 A 
ENDROOT
BRANCH   3  16
ATOM     16  O   UNL     1      25.368  -0.430  26.331  0.00  0.00    -0.339 OA
ATOM     17  H   UNL     1      25.166  -1.136  25.726  0.00  0.00    +0.246 HD
ENDBRANCH   3  16
BRANCH   9  18
ATOM     18  C   UNL     1      33.721   0.541  26.855  0.00  0.00    +0.179 C 
BRANCH  18  19
ATOM     19  C   UNL     1      35.159   0.772  26.772  0.00  0.00    +0.089 C 
ATOM     20  N   UNL     1      36.300   0.962  26.713  0.00  0.00    -0.304 NA
ENDBRANCH  18  19
ENDBRANCH   9  18
BRANCH  10  21
ATOM     21  C   UNL     1      34.915  -0.148  29.303  0.00  0.00    +0.114 C 
BRANCH  21  22
ATOM     22  O   UNL     1      36.048  -0.795  29.407  0.00  0.00    -0.246 OA
ATOM     23  H   UNL     1      36.751  -0.178  29.576  0.00  0.00    +0.000 HD
ENDBRANCH  21  22
ENDBRANCH  10  21
TORSDOF 5
ENDMDL
MODEL 11
REMARK minimizedAffinity -5.95035791
REMARK minimizedRMSD -1
REMARK  Name = scaffold
REMARK  6 active torsions:
REMARK  status: ('A' for Active; 'I' for Inactive)
REMARK    1  A    between atoms: C_3  and  O_4
REMARK    2  A    between atoms: C_5  and  C_17
REMARK    3  A    between atoms: C_15  and  C_20
REMARK    4  A    between atoms: C_15  and  C_23
REMARK    5  A    between atoms: C_16  and  C_17
REMARK    6  A    between atoms: C_23  and  O_25
REMARK                            x       y       z     vdW  Elec       q    Type
REMARK                         _______ _______ _______ _____ _____    ______ ____
ROOT
ATOM      1  C   UNL     1      33.283   0.974  26.393  0.00  0.00    -0.024 A 
ATOM      2  C   UNL     1      34.506   1.575  26.703  0.00  0.00    +0.000 A 
ATOM      3  C   UNL     1      34.723   2.114  27.972  0.00  0.00    +0.074 A 
ATOM      4  C   UNL     1      33.683   2.086  28.907  0.00  0.00    +0.008 A 
ATOM      5  C   UNL     1      32.456   1.489  28.591  0.00  0.00    -0.049 A 
ATOM      6  C   UNL     1      31.325   1.589  29.617  0.00  0.00    +0.058 C 
ATOM      7  C   UNL     1      29.957   1.158  29.029  0.00  0.00    +0.018 C 
ATOM      8  C   UNL     1      30.117  -0.215  28.320  0.00  0.00    +0.000 C 
ATOM      9  C   UNL     1      28.766  -0.901  27.916  0.00  0.00    -0.004 C 
ATOM     10  C   UNL     1      29.005  -2.272  27.185  0.00  0.00    +0.006 C 
ATOM     11  C   UNL     1      29.499  -3.391  28.157  0.00  0.00    -0.039 C 
ATOM     12  C   UNL     1      30.025  -2.088  26.022  0.00  0.00    -0.032 C 
ATOM     13  C   UNL     1      31.343  -1.401  26.463  0.00  0.00    +0.006 C 
ATOM     14  C   UNL     1      31.022  -0.007  27.069  0.00  0.00    +0.030 C 
ATOM     15  C   UNL     1      32.283   0.833  27.364  0.00  0.00    -0.048 A 
ENDROOT
BRANCH   3  16
ATOM     16  O   UNL     1      35.968   2.673  28.274  0.00  0.00    -0.339 OA
ATOM     17  H   UNL     1      36.053   2.978  29.171  0.00  0.00    +0.246 HD
ENDBRANCH   3  16
BRANCH   9  18
ATOM     18  C   UNL     1      28.074   0.066  26.901  0.00  0.00    +0.179 C 
BRANCH  18  19
ATOM     19  C   UNL     1      26.619  -0.031  26.873  0.00  0.00    +0.089 C 
ATOM     20  N   UNL     1      25.464  -0.112  26.841  0.00  0.00    -0.304 NA
ENDBRANCH  18  19
ENDBRANCH   9  18
BRANCH  10  21
ATOM     21  C   UNL     1      27.714  -2.691  26.497  0.00  0.00    +0.114 C 
BRANCH  21  22
ATOM     22  O   UNL     1      27.167  -3.880  26.486  0.00  0.00    -0.246 OA
ATOM     23  H   UNL     1      26.365  -3.855  25.978  0.00  0.00    +0.000 HD
ENDBRANCH  21  22
ENDBRANCH  10  21
TORSDOF 5
ENDMDL
MODEL 12
REMARK minimizedAffinity -5.60368633
REMARK minimizedRMSD -1
REMARK  Name = scaffold
REMARK  6 active torsions:
REMARK  status: ('A' for Active; 'I' for Inactive)
REMARK    1  A    between atoms: C_3  and  O_4
REMARK    2  A    between atoms: C_5  and  C_17
REMARK    3  A    between atoms: C_15  and  C_20
REMARK    4  A    between atoms: C_15  and  C_23
REMARK    5  A    between atoms: C_16  and  C_17
REMARK    6  A    between atoms: C_23  and  O_25
REMARK                            x       y       z     vdW  Elec       q    Type
REMARK                         _______ _______ _______ _____ _____    ______ ____
ROOT
ATOM      1  C   UNL     1      31.326  -2.813  25.266  0.00  0.00    -0.024 A 
ATOM      2  C   UNL     1      32.475  -3.603  25.185  0.00  0.00    +0.000 A 
ATOM      3  C   UNL     1      33.290  -3.775  26.305  0.00  0.00    +0.074 A 
ATOM      4  C   UNL     1      32.965  -3.107  27.490  0.00  0.00    +0.008 A 
ATOM      5  C   UNL     1      31.815  -2.310  27.565  0.00  0.00    -0.049 A 
ATOM      6  C   UNL     1      31.575  -1.520  28.854  0.00  0.00    +0.058 C 
ATOM      7  C   UNL     1      30.450  -0.465  28.696  0.00  0.00    +0.018 C 
ATOM      8  C   UNL     1      29.201  -1.142  28.067  0.00  0.00    +0.000 C 
ATOM      9  C   UNL     1      27.900  -0.268  28.098  0.00  0.00    -0.004 C 
ATOM     10  C   UNL     1      26.685  -1.006  27.427  0.00  0.00    +0.006 C 
ATOM     11  C   UNL     1      26.141  -2.181  28.300  0.00  0.00    -0.039 C 
ATOM     12  C   UNL     1      27.093  -1.533  26.018  0.00  0.00    -0.032 C 
ATOM     13  C   UNL     1      28.387  -2.386  26.031  0.00  0.00    +0.006 C 
ATOM     14  C   UNL     1      29.558  -1.543  26.604  0.00  0.00    +0.030 C 
ATOM     15  C   UNL     1      30.928  -2.242  26.482  0.00  0.00    -0.048 A 
ENDROOT
BRANCH   3  16
ATOM     16  O   UNL     1      34.413  -4.604  26.214  0.00  0.00    -0.339 OA
ATOM     17  H   UNL     1      34.891  -4.706  27.030  0.00  0.00    +0.246 HD
ENDBRANCH   3  16
BRANCH   9  18
ATOM     18  C   UNL     1      28.213   1.007  27.249  0.00  0.00    +0.179 C 
BRANCH  18  19
ATOM     19  C   UNL     1      28.824   2.098  28.001  0.00  0.00    +0.089 C 
ATOM     20  N   UNL     1      29.314   2.966  28.589  0.00  0.00    -0.304 NA
ENDBRANCH  18  19
ENDBRANCH   9  18
BRANCH  10  21
ATOM     21  C   UNL     1      25.587   0.010  27.150  0.00  0.00    +0.114 C 
BRANCH  21  22
ATOM     22  O   UNL     1      24.358  -0.230  26.769  0.00  0.00    -0.246 OA
ATOM     23  H   UNL     1      23.891   0.592  26.672  0.00  0.00    +0.000 HD
ENDBRANCH  21  22
ENDBRANCH  10  21
TORSDOF 5
ENDMDL
MODEL 13
REMARK minimizedAffinity -5.45918655
REMARK minimizedRMSD -1
REMARK  Name = scaffold
REMARK  6 active torsions:
REMARK  status: ('A' for Active; 'I' for Inactive)
REMARK    1  A    between atoms: C_3  and  O_4
REMARK    2  A    between atoms: C_5  and  C_17
REMARK    3  A    between atoms: C_15  and  C_20
REMARK    4  A    between atoms: C_15  and  C_23
REMARK    5  A    between atoms: C_16  and  C_17
REMARK    6  A    between atoms: C_23  and  O_25
REMARK                            x       y       z     vdW  Elec       q    Type
REMARK                         _______ _______ _______ _____ _____    ______ ____
ROOT
ATOM      1  C   UNL     1      33.584  -1.913  29.144  0.00  0.00    -0.024 A 
ATOM      2  C   UNL     1      34.766  -1.683  29.853  0.00  0.00    +0.000 A 
ATOM      3  C   UNL     1      35.584  -0.601  29.525  0.00  0.00    +0.074 A 
ATOM      4  C   UNL     1      35.227   0.217  28.449  0.00  0.00    +0.008 A 
ATOM      5  C   UNL     1      34.045  -0.020  27.735  0.00  0.00    -0.049 A 
ATOM      6  C   UNL     1      33.767   0.842  26.502  0.00  0.00    +0.058 C 
ATOM      7  C   UNL     1      32.600   0.287  25.646  0.00  0.00    +0.018 C 
ATOM      8  C   UNL     1      31.382   0.003  26.569  0.00  0.00    +0.000 C 
ATOM      9  C   UNL     1      30.046  -0.304  25.808  0.00  0.00    -0.004 C 
ATOM     10  C   UNL     1      28.865  -0.602  26.802  0.00  0.00    +0.006 C 
ATOM     11  C   UNL     1      28.368   0.679  27.544  0.00  0.00    -0.039 C 
ATOM     12  C   UNL     1      29.299  -1.683  27.837  0.00  0.00    -0.032 C 
ATOM     13  C   UNL     1      30.627  -1.344  28.561  0.00  0.00    +0.006 C 
ATOM     14  C   UNL     1      31.760  -1.178  27.512  0.00  0.00    +0.030 C 
ATOM     15  C   UNL     1      33.159  -1.026  28.146  0.00  0.00    -0.048 A 
ENDROOT
BRANCH   3  16
ATOM     16  O   UNL     1      36.740  -0.365  30.275  0.00  0.00    -0.339 OA
ATOM     17  H   UNL     1      37.220   0.415  30.019  0.00  0.00    +0.246 HD
ENDBRANCH   3  16
BRANCH   9  18
ATOM     18  C   UNL     1      30.308  -1.600  24.975  0.00  0.00    +0.179 C 
BRANCH  18  19
ATOM     19  C   UNL     1      31.264  -1.434  23.885  0.00  0.00    +0.089 C 
ATOM     20  N   UNL     1      32.028  -1.310  23.024  0.00  0.00    -0.304 NA
ENDBRANCH  18  19
ENDBRANCH   9  18
BRANCH  10  21
ATOM     21  C   UNL     1      27.727  -1.250  26.029  0.00  0.00    +0.114 C 
BRANCH  21  22
ATOM     22  O   UNL     1      26.445  -1.008  26.146  0.00  0.00    -0.246 OA
ATOM     23  H   UNL     1      25.963  -1.558  25.540  0.00  0.00    +0.000 HD
ENDBRANCH  21  22
ENDBRANCH  10  21
TORSDOF 5
ENDMDL
MODEL 14
REMARK minimizedAffinity -5.33981848
REMARK minimizedRMSD -1
REMARK  Name = scaffold
REMARK  6 active torsions:
REMARK  status: ('A' for Active; 'I' for Inactive)
REMARK    1  A    between atoms: C_3  and  O_4
REMARK    2  A    between atoms: C_5  and  C_17
REMARK    3  A    between atoms: C_15  and  C_20
REMARK    4  A    between atoms: C_15  and  C_23
REMARK    5  A    between atoms: C_16  and  C_17
REMARK    6  A    between atoms: C_23  and  O_25
REMARK                            x       y       z     vdW  Elec       q    Type
REMARK                         _______ _______ _______ _____ _____    ______ ____
ROOT
ATOM      1  C   UNL     1      32.719  -3.895  26.011  0.00  0.00    -0.024 A 
ATOM      2  C   UNL     1      32.365  -3.656  27.341  0.00  0.00    +0.000 A 
ATOM      3  C   UNL     1      31.809  -2.431  27.712  0.00  0.00    +0.074 A 
ATOM      4  C   UNL     1      31.659  -1.433  26.743  0.00  0.00    +0.008 A 
ATOM      5  C   UNL     1      32.022  -1.674  25.412  0.00  0.00    -0.049 A 
ATOM      6  C   UNL     1      31.936  -0.508  24.424  0.00  0.00    +0.058 C 
ATOM      7  C   UNL     1      32.638  -0.823  23.078  0.00  0.00    +0.018 C 
ATOM      8  C   UNL     1      32.143  -2.199  22.555  0.00  0.00    +0.000 C 
ATOM      9  C   UNL     1      32.560  -2.523  21.079  0.00  0.00    -0.004 C 
ATOM     10  C   UNL     1      32.044  -3.937  20.625  0.00  0.00    +0.006 C 
ATOM     11  C   UNL     1      30.499  -3.966  20.394  0.00  0.00    -0.039 C 
ATOM     12  C   UNL     1      32.446  -5.015  21.676  0.00  0.00    -0.032 C 
ATOM     13  C   UNL     1      32.022  -4.652  23.122  0.00  0.00    +0.006 C 
ATOM     14  C   UNL     1      32.666  -3.299  23.527  0.00  0.00    +0.030 C 
ATOM     15  C   UNL     1      32.457  -2.945  25.014  0.00  0.00    -0.048 A 
ENDROOT
BRANCH   3  16
ATOM     16  O   UNL     1      31.423  -2.228  29.041  0.00  0.00    -0.339 OA
ATOM     17  H   UNL     1      31.013  -1.386  29.205  0.00  0.00    +0.246 HD
ENDBRANCH   3  16
BRANCH   9  18
ATOM     18  C   UNL     1      34.122  -2.558  21.066  0.00  0.00    +0.179 C 
BRANCH  18  19
ATOM     19  C   UNL     1      34.734  -1.760  20.009  0.00  0.00    +0.089 C 
ATOM     20  N   UNL     1      35.218  -1.118  19.175  0.00  0.00    -0.304 NA
ENDBRANCH  18  19
ENDBRANCH   9  18
BRANCH  10  21
ATOM     21  C   UNL     1      32.784  -4.344  19.359  0.00  0.00    +0.114 C 
BRANCH  21  22
ATOM     22  O   UNL     1      32.639  -3.846  18.157  0.00  0.00    -0.246 OA
ATOM     23  H   UNL     1      33.228  -4.289  17.558  0.00  0.00    +0.000 HD
ENDBRANCH  21  22
ENDBRANCH  10  21
TORSDOF 5
ENDMDL
MODEL 15
REMARK minimizedAffinity -5.10260344
REMARK minimizedRMSD -1
REMARK  Name = scaffold
REMARK  6 active torsions:
REMARK  status: ('A' for Active; 'I' for Inactive)
REMARK    1  A    between atoms: C_3  and  O_4
REMARK    2  A    between atoms: C_5  and  C_17
REMARK    3  A    between atoms: C_15  and  C_20
REMARK    4  A    between atoms: C_15  and  C_23
REMARK    5  A    between atoms: C_16  and  C_17
REMARK    6  A    between atoms: C_23  and  O_25
REMARK                            x       y       z     vdW  Elec       q    Type
REMARK                         _______ _______ _______ _____ _____    ______ ____
ROOT
ATOM      1  C   UNL     1      34.784  -1.723  26.289  0.00  0.00    -0.024 A 
ATOM      2  C   UNL     1      36.137  -1.886  26.600  0.00  0.00    +0.000 A 
ATOM      3  C   UNL     1      36.630  -1.461  27.834  0.00  0.00    +0.074 A 
ATOM      4  C   UNL     1      35.762  -0.828  28.730  0.00  0.00    +0.008 A 
ATOM      5  C   UNL     1      34.408  -0.660  28.412  0.00  0.00    -0.049 A 
ATOM      6  C   UNL     1      33.537   0.137  29.385  0.00  0.00    +0.058 C 
ATOM      7  C   UNL     1      32.156   0.498  28.779  0.00  0.00    +0.018 C 
ATOM      8  C   UNL     1      31.514  -0.781  28.177  0.00  0.00    +0.000 C 
ATOM      9  C   UNL     1      30.007  -0.624  27.773  0.00  0.00    -0.004 C 
ATOM     10  C   UNL     1      29.430  -1.948  27.151  0.00  0.00    +0.006 C 
ATOM     11  C   UNL     1      29.221  -3.070  28.218  0.00  0.00    -0.039 C 
ATOM     12  C   UNL     1      30.368  -2.460  26.017  0.00  0.00    -0.032 C 
ATOM     13  C   UNL     1      31.848  -2.593  26.457  0.00  0.00    +0.006 C 
ATOM     14  C   UNL     1      32.369  -1.215  26.949  0.00  0.00    +0.030 C 
ATOM     15  C   UNL     1      33.886  -1.203  27.230  0.00  0.00    -0.048 A 
ENDROOT
BRANCH   3  16
ATOM     16  O   UNL     1      37.978  -1.671  28.143  0.00  0.00    -0.339 OA
ATOM     17  H   UNL     1      38.227  -1.394  29.018  0.00  0.00    +0.246 HD
ENDBRANCH   3  16
BRANCH   9  18
ATOM     18  C   UNL     1      29.966   0.479  26.666  0.00  0.00    +0.179 C 
BRANCH  18  19
ATOM     19  C   UNL     1      28.887   1.448  26.821  0.00  0.00    +0.089 C 
ATOM     20  N   UNL     1      28.032   2.219  26.953  0.00  0.00    -0.304 NA
ENDBRANCH  18  19
ENDBRANCH   9  18
BRANCH  10  21
ATOM     21  C   UNL     1      28.120  -1.628  26.447  0.00  0.00    +0.114 C 
BRANCH  21  22
ATOM     22  O   UNL     1      26.911  -1.963  26.822  0.00  0.00    -0.246 OA
ATOM     23  H   UNL     1      26.281  -1.631  26.194  0.00  0.00    +0.000 HD
ENDBRANCH  21  22
ENDBRANCH  10  21
TORSDOF 5
ENDMDL
MODEL 16
REMARK minimizedAffinity -4.68697166
REMARK minimizedRMSD -1
REMARK  Name = scaffold
REMARK  6 active torsions:
REMARK  status: ('A' for Active; 'I' for Inactive)
REMARK    1  A    between atoms: C_3  and  O_4
REMARK    2  A    between atoms: C_5  and  C_17
REMARK    3  A    between atoms: C_15  and  C_20
REMARK    4  A    between atoms: C_15  and  C_23
REMARK    5  A    between atoms: C_16  and  C_17
REMARK    6  A    between atoms: C_23  and  O_25
REMARK                            x       y       z     vdW  Elec       q    Type
REMARK                         _______ _______ _______ _____ _____    ______ ____
ROOT
ATOM      1  C   UNL     1      29.751  -2.690  28.429  0.00  0.00    -0.024 A 
ATOM      2  C   UNL     1      28.571  -3.328  28.035  0.00  0.00    +0.000 A 
ATOM      3  C   UNL     1      28.022  -3.076  26.777  0.00  0.00    +0.074 A 
ATOM      4  C   UNL     1      28.643  -2.142  25.942  0.00  0.00    +0.008 A 
ATOM      5  C   UNL     1      29.821  -1.499  26.342  0.00  0.00    -0.049 A 
ATOM      6  C   UNL     1      30.389  -0.409  25.430  0.00  0.00    +0.058 C 
ATOM      7  C   UNL     1      31.505   0.415  26.122  0.00  0.00    +0.018 C 
ATOM      8  C   UNL     1      32.541  -0.557  26.751  0.00  0.00    +0.000 C 
ATOM      9  C   UNL     1      33.860   0.128  27.247  0.00  0.00    -0.004 C 
ATOM     10  C   UNL     1      34.850  -0.910  27.890  0.00  0.00    +0.006 C 
ATOM     11  C   UNL     1      35.513  -1.844  26.828  0.00  0.00    -0.039 C 
ATOM     12  C   UNL     1      34.107  -1.764  28.961  0.00  0.00    -0.032 C 
ATOM     13  C   UNL     1      32.806  -2.417  28.432  0.00  0.00    +0.006 C 
ATOM     14  C   UNL     1      31.842  -1.312  27.921  0.00  0.00    +0.030 C 
ATOM     15  C   UNL     1      30.443  -1.849  27.549  0.00  0.00    -0.048 A 
ENDROOT
BRANCH   3  16
ATOM     16  O   UNL     1      26.865  -3.756  26.387  0.00  0.00    -0.339 OA
ATOM     17  H   UNL     1      26.578  -3.563  25.501  0.00  0.00    +0.246 HD
ENDBRANCH   3  16
BRANCH   9  18
ATOM     18  C   UNL     1      33.434   1.136  28.363  0.00  0.00    +0.179 C 
BRANCH  18  19
ATOM     19  C   UNL     1      33.758   2.529  28.074  0.00  0.00    +0.089 C 
ATOM     20  N   UNL     1      34.021   3.635  27.852  0.00  0.00    -0.304 NA
ENDBRANCH  18  19
ENDBRANCH   9  18
BRANCH  10  21
ATOM     21  C   UNL     1      35.911  -0.153  28.675  0.00  0.00    +0.114 C 
BRANCH  21  22
ATOM     22  O   UNL     1      36.181  -0.256  29.952  0.00  0.00    -0.246 OA
ATOM     23  H   UNL     1      36.891   0.335  30.174  0.00  0.00    +0.000 HD
ENDBRANCH  21  22
ENDBRANCH  10  21
TORSDOF 5
ENDMDL
MODEL 17
REMARK minimizedAffinity -4.42069483
REMARK minimizedRMSD -1
REMARK  Name = scaffold
REMARK  6 active torsions:
REMARK  status: ('A' for Active; 'I' for Inactive)
REMARK    1  A    between atoms: C_3  and  O_4
REMARK    2  A    between atoms: C_5  and  C_17
REMARK    3  A    between atoms: C_15  and  C_20
REMARK    4  A    between atoms: C_15  and  C_23
REMARK    5  A    between atoms: C_16  and  C_17
REMARK    6  A    between atoms: C_23  and  O_25
REMARK                            x       y       z     vdW  Elec       q    Type
REMARK                         _______ _______ _______ _____ _____    ______ ____
ROOT
ATOM      1  C   UNL     1      33.745   1.827  27.361  0.00  0.00    -0.024 A 
ATOM      2  C   UNL     1      34.640   2.328  28.310  0.00  0.00    +0.000 A 
ATOM      3  C   UNL     1      34.978   1.566  29.429  0.00  0.00    +0.074 A 
ATOM      4  C   UNL     1      34.371   0.318  29.608  0.00  0.00    +0.008 A 
ATOM      5  C   UNL     1      33.469  -0.178  28.658  0.00  0.00    -0.049 A 
ATOM      6  C   UNL     1      32.757  -1.497  28.966  0.00  0.00    +0.058 C 
ATOM      7  C   UNL     1      31.585  -1.775  27.991  0.00  0.00    +0.018 C 
ATOM      8  C   UNL     1      32.083  -1.593  26.531  0.00  0.00    +0.000 C 
ATOM      9  C   UNL     1      31.085  -2.102  25.434  0.00  0.00    -0.004 C 
ATOM     10  C   UNL     1      31.643  -1.866  23.983  0.00  0.00    +0.006 C 
ATOM     11  C   UNL     1      32.820  -2.831  23.629  0.00  0.00    -0.039 C 
ATOM     12  C   UNL     1      32.102  -0.385  23.822  0.00  0.00    -0.032 C 
ATOM     13  C   UNL     1      33.081   0.079  24.930  0.00  0.00    +0.006 C 
ATOM     14  C   UNL     1      32.406  -0.083  26.319  0.00  0.00    +0.030 C 
ATOM     15  C   UNL     1      33.230   0.529  27.471  0.00  0.00    -0.048 A 
ENDROOT
BRANCH   3  16
ATOM     16  O   UNL     1      35.907   2.068  30.345  0.00  0.00    -0.339 OA
ATOM     17  H   UNL     1      36.118   1.472  31.056  0.00  0.00    +0.246 HD
ENDBRANCH   3  16
BRANCH   9  18
ATOM     18  C   UNL     1      29.789  -1.243  25.592  0.00  0.00    +0.179 C 
BRANCH  18  19
ATOM     19  C   UNL     1      28.712  -1.904  26.320  0.00  0.00    +0.089 C 
ATOM     20  N   UNL     1      27.863  -2.434  26.903  0.00  0.00    -0.304 NA
ENDBRANCH  18  19
ENDBRANCH   9  18
BRANCH  10  21
ATOM     21  C   UNL     1      30.503  -2.022  22.988  0.00  0.00    +0.114 C 
BRANCH  21  22
ATOM     22  O   UNL     1      30.531  -2.642  21.836  0.00  0.00    -0.246 OA
ATOM     23  H   UNL     1      29.678  -2.582  21.423  0.00  0.00    +0.000 HD
ENDBRANCH  21  22
ENDBRANCH  10  21
TORSDOF 5
ENDMDL
MODEL 18
REMARK minimizedAffinity -4.11647463
REMARK minimizedRMSD -1
REMARK  Name = scaffold
REMARK  6 active torsions:
REMARK  status: ('A' for Active; 'I' for Inactive)
REMARK    1  A    between atoms: C_3  and  O_4
REMARK    2  A    between atoms: C_5  and  C_17
REMARK    3  A    between atoms: C_15  and  C_20
REMARK    4  A    between atoms: C_15  and  C_23
REMARK    5  A    between atoms: C_16  and  C_17
REMARK    6  A    between atoms: C_23  and  O_25
REMARK                            x       y       z     vdW  Elec       q    Type
REMARK                         _______ _______ _______ _____ _____    ______ ____
ROOT
ATOM      1  C   UNL     1      35.015  -0.032  17.028  0.00  0.00    -0.024 A 
ATOM      2  C   UNL     1      35.986   0.507  16.179  0.00  0.00    +0.000 A 
ATOM      3  C   UNL     1      37.341   0.327  16.458  0.00  0.00    +0.074 A 
ATOM      4  C   UNL     1      37.709  -0.355  17.622  0.00  0.00    +0.008 A 
ATOM      5  C   UNL     1      36.734  -0.888  18.474  0.00  0.00    -0.049 A 
ATOM      6  C   UNL     1      37.199  -1.526  19.785  0.00  0.00    +0.058 C 
ATOM      7  C   UNL     1      36.022  -1.801  20.756  0.00  0.00    +0.018 C 
ATOM      8  C   UNL     1      34.896  -2.550  19.993  0.00  0.00    +0.000 C 
ATOM      9  C   UNL     1      33.763  -3.130  20.909  0.00  0.00    -0.004 C 
ATOM     10  C   UNL     1      32.648  -3.855  20.069  0.00  0.00    +0.006 C 
ATOM     11  C   UNL     1      33.132  -5.220  19.482  0.00  0.00    -0.039 C 
ATOM     12  C   UNL     1      32.156  -2.925  18.919  0.00  0.00    -0.032 C 
ATOM     13  C   UNL     1      33.308  -2.368  18.043  0.00  0.00    +0.006 C 
ATOM     14  C   UNL     1      34.299  -1.573  18.936  0.00  0.00    +0.030 C 
ATOM     15  C   UNL     1      35.377  -0.821  18.127  0.00  0.00    -0.048 A 
ENDROOT
BRANCH   3  16
ATOM     16  O   UNL     1      38.296   0.838  15.573  0.00  0.00    -0.339 OA
ATOM     17  H   UNL     1      39.195   0.637  15.809  0.00  0.00    +0.246 HD
ENDBRANCH   3  16
BRANCH   9  18
ATOM     18  C   UNL     1      33.104  -1.903  21.617  0.00  0.00    +0.179 C 
BRANCH  18  19
ATOM     19  C   UNL     1      32.687  -2.152  22.992  0.00  0.00    +0.089 C 
ATOM     20  N   UNL     1      32.364  -2.354  24.086  0.00  0.00    -0.304 NA
ENDBRANCH  18  19
ENDBRANCH   9  18
BRANCH  10  21
ATOM     21  C   UNL     1      31.424  -4.053  20.949  0.00  0.00    +0.114 C 
BRANCH  21  22
ATOM     22  O   UNL     1      30.195  -4.285  20.562  0.00  0.00    -0.246 OA
ATOM     23  H   UNL     1      29.633  -4.366  21.324  0.00  0.00    +0.000 HD
ENDBRANCH  21  22
ENDBRANCH  10  21
TORSDOF 5
ENDMDL
MODEL 19
REMARK minimizedAffinity -3.93387246
REMARK minimizedRMSD -1
REMARK  Name = scaffold
REMARK  6 active torsions:
REMARK  status: ('A' for Active; 'I' for Inactive)
REMARK    1  A    between atoms: C_3  and  O_4
REMARK    2  A    between atoms: C_5  and  C_17
REMARK    3  A    between atoms: C_15  and  C_20
REMARK    4  A    between atoms: C_15  and  C_23
REMARK    5  A    between atoms: C_16  and  C_17
REMARK    6  A    between atoms: C_23  and  O_25
REMARK                            x       y       z     vdW  Elec       q    Type
REMARK                         _______ _______ _______ _____ _____    ______ ____
ROOT
ATOM      1  C   UNL     1      29.833  -0.453  26.621  0.00  0.00    -0.024 A 
ATOM      2  C   UNL     1      28.545   0.046  26.406  0.00  0.00    +0.000 A 
ATOM      3  C   UNL     1      28.047   1.074  27.207  0.00  0.00    +0.074 A 
ATOM      4  C   UNL     1      28.836   1.560  28.254  0.00  0.00    +0.008 A 
ATOM      5  C   UNL     1      30.124   1.053  28.471  0.00  0.00    -0.049 A 
ATOM      6  C   UNL     1      30.892   1.550  29.698  0.00  0.00    +0.058 C 
ATOM      7  C   UNL     1      32.158   0.702  29.982  0.00  0.00    +0.018 C 
ATOM      8  C   UNL     1      32.981   0.560  28.672  0.00  0.00    +0.000 C 
ATOM      9  C   UNL     1      34.417  -0.039  28.867  0.00  0.00    -0.004 C 
ATOM     10  C   UNL     1      35.182  -0.173  27.500  0.00  0.00    +0.006 C 
ATOM     11  C   UNL     1      35.632   1.208  26.926  0.00  0.00    -0.039 C 
ATOM     12  C   UNL     1      34.292  -0.918  26.460  0.00  0.00    -0.032 C 
ATOM     13  C   UNL     1      32.879  -0.298  26.304  0.00  0.00    +0.006 C 
ATOM     14  C   UNL     1      32.155  -0.308  27.678  0.00  0.00    +0.030 C 
ATOM     15  C   UNL     1      30.673   0.115  27.587  0.00  0.00    -0.048 A 
ENDROOT
BRANCH   3  16
ATOM     16  O   UNL     1      26.772   1.587  26.949  0.00  0.00    -0.339 OA
ATOM     17  H   UNL     1      26.522   2.314  27.508  0.00  0.00    +0.246 HD
ENDBRANCH   3  16
BRANCH   9  18
ATOM     18  C   UNL     1      34.214  -1.477  29.443  0.00  0.00    +0.179 C 
BRANCH  18  19
ATOM     19  C   UNL     1      33.409  -2.356  28.603  0.00  0.00    +0.089 C 
ATOM     20  N   UNL     1      32.772  -3.061  27.941  0.00  0.00    -0.304 NA
ENDBRANCH  18  19
ENDBRANCH   9  18
BRANCH  10  21
ATOM     21  C   UNL     1      36.381  -1.088  27.698  0.00  0.00    +0.114 C 
BRANCH  21  22
ATOM     22  O   UNL     1      37.506  -1.083  27.028  0.00  0.00    -0.246 OA
ATOM     23  H   UNL     1      38.078  -1.763  27.364  0.00  0.00    +0.000 HD
ENDBRANCH  21  22
ENDBRANCH  10  21
TORSDOF 5
ENDMDL
MODEL 20
REMARK minimizedAffinity -2.45804048
REMARK minimizedRMSD -1
REMARK  Name = scaffold
REMARK  6 active torsions:
REMARK  status: ('A' for Active; 'I' for Inactive)
REMARK    1  A    between atoms: C_3  and  O_4
REMARK    2  A    between atoms: C_5  and  C_17
REMARK    3  A    between atoms: C_15  and  C_20
REMARK    4  A    between atoms: C_15  and  C_23
REMARK    5  A    between atoms: C_16  and  C_17
REMARK    6  A    between atoms: C_23  and  O_25
REMARK                            x       y       z     vdW  Elec       q    Type
REMARK                         _______ _______ _______ _____ _____    ______ ____
ROOT
ATOM      1  C   UNL     1      34.299  -1.838  27.236  0.00  0.00    -0.024 A 
ATOM      2  C   UNL     1      35.688  -1.968  27.320  0.00  0.00    +0.000 A 
ATOM      3  C   UNL     1      36.510  -0.854  27.141  0.00  0.00    +0.074 A 
ATOM      4  C   UNL     1      35.925   0.377  26.830  0.00  0.00    +0.008 A 
ATOM      5  C   UNL     1      34.533   0.502  26.740  0.00  0.00    -0.049 A 
ATOM      6  C   UNL     1      33.962   1.849  26.290  0.00  0.00    +0.058 C 
ATOM      7  C   UNL     1      32.452   1.764  25.949  0.00  0.00    +0.018 C 
ATOM      8  C   UNL     1      31.705   1.061  27.116  0.00  0.00    +0.000 C 
ATOM      9  C   UNL     1      30.142   1.146  27.033  0.00  0.00    -0.004 C 
ATOM     10  C   UNL     1      29.453   0.397  28.232  0.00  0.00    +0.006 C 
ATOM     11  C   UNL     1      29.611   1.159  29.586  0.00  0.00    -0.039 C 
ATOM     12  C   UNL     1      30.030  -1.045  28.362  0.00  0.00    -0.032 C 
ATOM     13  C   UNL     1      31.578  -1.084  28.434  0.00  0.00    +0.006 C 
ATOM     14  C   UNL     1      32.172  -0.425  27.159  0.00  0.00    +0.030 C 
ATOM     15  C   UNL     1      33.703  -0.584  27.048  0.00  0.00    -0.048 A 
ENDROOT
BRANCH   3  16
ATOM     16  O   UNL     1      37.895  -0.998  27.270  0.00  0.00    -0.339 OA
ATOM     17  H   UNL     1      38.383  -0.186  27.178  0.00  0.00    +0.246 HD
ENDBRANCH   3  16
BRANCH   9  18
ATOM     18  C   UNL     1      29.735   0.412  25.715  0.00  0.00    +0.179 C 
BRANCH  18  19
ATOM     19  C   UNL     1      29.550  -1.028  25.859  0.00  0.00    +0.089 C 
ATOM     20  N   UNL     1      29.398  -2.170  25.981  0.00  0.00    -0.304 NA
ENDBRANCH  18  19
ENDBRANCH   9  18
BRANCH  10  21
ATOM     21  C   UNL     1      27.983   0.190  27.900  0.00  0.00    +0.114 C 
BRANCH  21  22
ATOM     22  O   UNL     1      27.281  -0.906  28.044  0.00  0.00    -0.246 OA
ATOM     23  H   UNL     1      26.389  -0.750  27.758  0.00  0.00    +0.000 HD
ENDBRANCH  21  22
ENDBRANCH  10  21
TORSDOF 5
ENDMDL
