MODEL 1
REMARK minimizedAffinity -8.09471989
REMARK minimizedRMSD -1
REMARK  Name = 301
REMARK  5 active torsions:
REMARK  status: ('A' for Active; 'I' for Inactive)
REMARK    1  A    between atoms: C_3  and  O_4
REMARK    2  A    between atoms: C_5  and  C_17
REMARK    3  A    between atoms: C_15  and  C_20
REMARK    4  A    between atoms: C_15  and  C_23
REMARK    5  A    between atoms: C_16  and  C_17
REMARK                            x       y       z     vdW  Elec       q    Type
REMARK                         _______ _______ _______ _____ _____    ______ ____
ROOT
ATOM      1  C   UNL     1      27.607   0.366  26.679  0.00  0.00    -0.024 A 
ATOM      2  C   UNL     1      26.233   0.338  26.921  0.00  0.00    +0.000 A 
ATOM      3  C   UNL     1      25.641  -0.790  27.491  0.00  0.00    +0.074 A 
ATOM      4  C   UNL     1      26.439  -1.902  27.776  0.00  0.00    +0.008 A 
ATOM      5  C   UNL     1      27.817  -1.878  27.523  0.00  0.00    -0.049 A 
ATOM      6  C   UNL     1      28.604  -3.171  27.766  0.00  0.00    +0.058 C 
ATOM      7  C   UNL     1      30.028  -3.096  27.165  0.00  0.00    +0.018 C 
ATOM      8  C   UNL     1      30.693  -1.773  27.621  0.00  0.00    +0.003 C 
ATOM      9  C   UNL     1      32.248  -1.731  27.441  0.00  0.00    +0.012 C 
ATOM     10  C   UNL     1      32.829  -0.392  28.016  0.00  0.00    +0.024 C 
ATOM     11  C   UNL     1      32.754  -0.306  29.575  0.00  0.00    -0.014 C 
ATOM     12  C   UNL     1      32.071   0.813  27.376  0.00  0.00    -0.011 C 
ATOM     13  C   UNL     1      30.525   0.741  27.527  0.00  0.00    +0.010 C 
ATOM     14  C   UNL     1      29.965  -0.582  26.935  0.00  0.00    +0.030 C 
ATOM     15  C   UNL     1      28.430  -0.705  27.056  0.00  0.00    -0.048 A 
ENDROOT
BRANCH  10  16
ATOM     16  C   UNL     1      34.311  -0.274  27.686  0.00  0.00    +0.109 C 
ATOM     17  N   UNL     1      35.162  -1.220  27.923  0.00  0.00    -0.296 N 
ATOM     18  H   UNL     1      34.929  -2.128  28.353  0.00  0.00    +0.187 HD
ATOM     19  C   UNL     1      36.499  -0.857  27.509  0.00  0.00    +0.156 C 
ATOM     20  C   UNL     1      36.198   0.571  26.955  0.00  0.00    +0.150 C 
ATOM     21  N   UNL     1      34.776   0.776  27.149  0.00  0.00    -0.273 NA
ENDBRANCH  10  16
BRANCH   3  22
ATOM     22  O   UNL     1      24.268  -0.783  27.757  0.00  0.00    -0.339 OA
ATOM     23  H   UNL     1      23.943  -1.581  28.159  0.00  0.00    +0.246 HD
ENDBRANCH   3  22
BRANCH   9  24
ATOM     24  C   UNL     1      32.723  -2.004  25.976  0.00  0.00    +0.183 C 
BRANCH  24  25
ATOM     25  C   UNL     1      32.809  -3.427  25.673  0.00  0.00    +0.089 C 
ATOM     26  N   UNL     1      32.876  -4.558  25.434  0.00  0.00    -0.304 NA
ENDBRANCH  24  25
ENDBRANCH   9  24
TORSDOF 4
ENDMDL
MODEL 2
REMARK minimizedAffinity -6.88729239
REMARK minimizedRMSD -1
REMARK  Name = 301
REMARK  5 active torsions:
REMARK  status: ('A' for Active; 'I' for Inactive)
REMARK    1  A    between atoms: C_3  and  O_4
REMARK    2  A    between atoms: C_5  and  C_17
REMARK    3  A    between atoms: C_15  and  C_20
REMARK    4  A    between atoms: C_15  and  C_23
REMARK    5  A    between atoms: C_16  and  C_17
REMARK                            x       y       z     vdW  Elec       q    Type
REMARK                         _______ _______ _______ _____ _____    ______ ____
ROOT
ATOM      1  C   UNL     1      33.827  -3.418  20.788  0.00  0.00    -0.024 A 
ATOM      2  C   UNL     1      33.016  -4.340  21.452  0.00  0.00    +0.000 A 
ATOM      3  C   UNL     1      31.781  -4.707  20.915  0.00  0.00    +0.074 A 
ATOM      4  C   UNL     1      31.354  -4.105  19.727  0.00  0.00    +0.008 A 
ATOM      5  C   UNL     1      32.163  -3.172  19.067  0.00  0.00    -0.049 A 
ATOM      6  C   UNL     1      31.581  -2.481  17.827  0.00  0.00    +0.058 C 
ATOM      7  C   UNL     1      32.443  -1.274  17.387  0.00  0.00    +0.018 C 
ATOM      8  C   UNL     1      33.925  -1.720  17.311  0.00  0.00    +0.003 C 
ATOM      9  C   UNL     1      34.855  -0.752  16.504  0.00  0.00    +0.012 C 
ATOM     10  C   UNL     1      36.306  -1.339  16.411  0.00  0.00    +0.024 C 
ATOM     11  C   UNL     1      36.403  -2.602  15.494  0.00  0.00    -0.014 C 
ATOM     12  C   UNL     1      36.816  -1.680  17.846  0.00  0.00    -0.011 C 
ATOM     13  C   UNL     1      35.866  -2.611  18.652  0.00  0.00    +0.010 C 
ATOM     14  C   UNL     1      34.439  -2.003  18.751  0.00  0.00    +0.030 C 
ATOM     15  C   UNL     1      33.451  -2.888  19.545  0.00  0.00    -0.048 A 
ENDROOT
BRANCH  10  16
ATOM     16  C   UNL     1      37.249  -0.323  15.780  0.00  0.00    +0.109 C 
ATOM     17  N   UNL     1      38.121   0.346  16.463  0.00  0.00    -0.296 N 
ATOM     18  H   UNL     1      38.261   0.263  17.481  0.00  0.00    +0.187 HD
ATOM     19  C   UNL     1      38.893   1.236  15.625  0.00  0.00    +0.156 C 
ATOM     20  C   UNL     1      38.234   0.901  14.250  0.00  0.00    +0.150 C 
ATOM     21  N   UNL     1      37.219  -0.094  14.534  0.00  0.00    -0.273 NA
ENDBRANCH  10  16
BRANCH   3  22
ATOM     22  O   UNL     1      31.000  -5.658  21.579  0.00  0.00    -0.339 OA
ATOM     23  H   UNL     1      30.181  -5.865  21.143  0.00  0.00    +0.246 HD
ENDBRANCH   3  22
BRANCH   9  24
ATOM     24  C   UNL     1      34.843   0.721  17.030  0.00  0.00    +0.183 C 
BRANCH  24  25
ATOM     25  C   UNL     1      34.923   1.699  15.953  0.00  0.00    +0.089 C 
ATOM     26  N   UNL     1      34.986   2.478  15.099  0.00  0.00    -0.304 NA
ENDBRANCH  24  25
ENDBRANCH   9  24
TORSDOF 4
ENDMDL
MODEL 3
REMARK minimizedAffinity -5.94944286
REMARK minimizedRMSD -1
REMARK  Name = 301
REMARK  5 active torsions:
REMARK  status: ('A' for Active; 'I' for Inactive)
REMARK    1  A    between atoms: C_3  and  O_4
REMARK    2  A    between atoms: C_5  and  C_17
REMARK    3  A    between atoms: C_15  and  C_20
REMARK    4  A    between atoms: C_15  and  C_23
REMARK    5  A    between atoms: C_16  and  C_17
REMARK                            x       y       z     vdW  Elec       q    Type
REMARK                         _______ _______ _______ _____ _____    ______ ____
ROOT
ATOM      1  C   UNL     1      31.806  -2.192  22.273  0.00  0.00    -0.024 A 
ATOM      2  C   UNL     1      31.826  -3.126  21.235  0.00  0.00    +0.000 A 
ATOM      3  C   UNL     1      32.278  -4.425  21.466  0.00  0.00    +0.074 A 
ATOM      4  C   UNL     1      32.748  -4.762  22.740  0.00  0.00    +0.008 A 
ATOM      5  C   UNL     1      32.738  -3.823  23.778  0.00  0.00    -0.049 A 
ATOM      6  C   UNL     1      33.364  -4.237  25.115  0.00  0.00    +0.058 C 
ATOM      7  C   UNL     1      33.560  -3.024  26.056  0.00  0.00    +0.018 C 
ATOM      8  C   UNL     1      32.235  -2.223  26.120  0.00  0.00    +0.003 C 
ATOM      9  C   UNL     1      32.139  -1.221  27.319  0.00  0.00    +0.012 C 
ATOM     10  C   UNL     1      30.730  -0.532  27.344  0.00  0.00    +0.024 C 
ATOM     11  C   UNL     1      29.574  -1.507  27.739  0.00  0.00    -0.014 C 
ATOM     12  C   UNL     1      30.443   0.101  25.946  0.00  0.00    -0.011 C 
ATOM     13  C   UNL     1      30.579  -0.895  24.759  0.00  0.00    +0.010 C 
ATOM     14  C   UNL     1      31.987  -1.552  24.739  0.00  0.00    +0.030 C 
ATOM     15  C   UNL     1      32.179  -2.551  23.576  0.00  0.00    -0.048 A 
ENDROOT
BRANCH  10  16
ATOM     16  C   UNL     1      30.696   0.565  28.399  0.00  0.00    +0.109 C 
ATOM     17  N   UNL     1      31.049   0.370  29.629  0.00  0.00    -0.296 N 
ATOM     18  H   UNL     1      31.379  -0.529  30.011  0.00  0.00    +0.187 HD
ATOM     19  C   UNL     1      30.931   1.575  30.420  0.00  0.00    +0.156 C 
ATOM     20  C   UNL     1      30.412   2.541  29.309  0.00  0.00    +0.150 C 
ATOM     21  N   UNL     1      30.319   1.739  28.105  0.00  0.00    -0.273 NA
ENDBRANCH  10  16
BRANCH   3  22
ATOM     22  O   UNL     1      32.257  -5.354  20.421  0.00  0.00    -0.339 OA
ATOM     23  H   UNL     1      32.566  -6.221  20.661  0.00  0.00    +0.246 HD
ENDBRANCH   3  22
BRANCH   9  24
ATOM     24  C   UNL     1      33.308  -0.183  27.371  0.00  0.00    +0.183 C 
BRANCH  24  25
ATOM     25  C   UNL     1      34.291  -0.500  28.399  0.00  0.00    +0.089 C 
ATOM     26  N   UNL     1      35.071  -0.753  29.217  0.00  0.00    -0.304 NA
ENDBRANCH  24  25
ENDBRANCH   9  24
TORSDOF 4
ENDMDL
MODEL 4
REMARK minimizedAffinity -5.66461992
REMARK minimizedRMSD -1
REMARK  Name = 301
REMARK  5 active torsions:
REMARK  status: ('A' for Active; 'I' for Inactive)
REMARK    1  A    between atoms: C_3  and  O_4
REMARK    2  A    between atoms: C_5  and  C_17
REMARK    3  A    between atoms: C_15  and  C_20
REMARK    4  A    between atoms: C_15  and  C_23
REMARK    5  A    between atoms: C_16  and  C_17
REMARK                            x       y       z     vdW  Elec       q    Type
REMARK                         _______ _______ _______ _____ _____    ______ ____
ROOT
ATOM      1  C   UNL     1      27.168   0.888  26.822  0.00  0.00    -0.024 A 
ATOM      2  C   UNL     1      25.791   0.657  26.801  0.00  0.00    +0.000 A 
ATOM      3  C   UNL     1      25.273  -0.553  27.265  0.00  0.00    +0.074 A 
ATOM      4  C   UNL     1      26.157  -1.542  27.709  0.00  0.00    +0.008 A 
ATOM      5  C   UNL     1      27.539  -1.314  27.720  0.00  0.00    -0.049 A 
ATOM      6  C   UNL     1      28.446  -2.482  28.124  0.00  0.00    +0.058 C 
ATOM      7  C   UNL     1      29.931  -2.192  27.800  0.00  0.00    +0.018 C 
ATOM      8  C   UNL     1      30.299  -0.794  28.355  0.00  0.00    +0.003 C 
ATOM      9  C   UNL     1      31.837  -0.524  28.471  0.00  0.00    +0.012 C 
ATOM     10  C   UNL     1      32.099   0.877  29.126  0.00  0.00    +0.024 C 
ATOM     11  C   UNL     1      31.721   0.929  30.642  0.00  0.00    -0.014 C 
ATOM     12  C   UNL     1      31.307   1.968  28.339  0.00  0.00    -0.011 C 
ATOM     13  C   UNL     1      29.788   1.671  28.198  0.00  0.00    +0.010 C 
ATOM     14  C   UNL     1      29.548   0.289  27.529  0.00  0.00    +0.030 C 
ATOM     15  C   UNL     1      28.052  -0.058  27.361  0.00  0.00    -0.048 A 
ENDROOT
BRANCH  10  16
ATOM     16  C   UNL     1      33.584   1.214  29.080  0.00  0.00    +0.109 C 
ATOM     17  N   UNL     1      34.055   2.225  28.425  0.00  0.00    -0.296 N 
ATOM     18  H   UNL     1      33.487   2.890  27.879  0.00  0.00    +0.187 HD
ATOM     19  C   UNL     1      35.492   2.325  28.551  0.00  0.00    +0.156 C 
ATOM     20  C   UNL     1      35.738   1.087  29.470  0.00  0.00    +0.150 C 
ATOM     21  N   UNL     1      34.431   0.504  29.700  0.00  0.00    -0.273 NA
ENDBRANCH  10  16
BRANCH   3  22
ATOM     22  O   UNL     1      23.889  -0.750  27.268  0.00  0.00    -0.339 OA
ATOM     23  H   UNL     1      23.613  -1.592  27.612  0.00  0.00    +0.246 HD
ENDBRANCH   3  22
BRANCH   9  24
ATOM     24  C   UNL     1      32.614  -0.704  27.125  0.00  0.00    +0.183 C 
BRANCH  24  25
ATOM     25  C   UNL     1      33.172  -2.042  26.977  0.00  0.00    +0.089 C 
ATOM     26  N   UNL     1      33.616  -3.105  26.857  0.00  0.00    -0.304 NA
ENDBRANCH  24  25
ENDBRANCH   9  24
TORSDOF 4
ENDMDL
MODEL 5
REMARK minimizedAffinity -5.63039255
REMARK minimizedRMSD -1
REMARK  Name = 301
REMARK  5 active torsions:
REMARK  status: ('A' for Active; 'I' for Inactive)
REMARK    1  A    between atoms: C_3  and  O_4
REMARK    2  A    between atoms: C_5  and  C_17
REMARK    3  A    between atoms: C_15  and  C_20
REMARK    4  A    between atoms: C_15  and  C_23
REMARK    5  A    between atoms: C_16  and  C_17
REMARK                            x       y       z     vdW  Elec       q    Type
REMARK                         _______ _______ _______ _____ _____    ______ ____
ROOT
ATOM      1  C   UNL     1      29.069   0.406  26.101  0.00  0.00    -0.024 A 
ATOM      2  C   UNL     1      27.705   0.676  26.225  0.00  0.00    +0.000 A 
ATOM      3  C   UNL     1      26.884  -0.172  26.968  0.00  0.00    +0.074 A 
ATOM      4  C   UNL     1      27.441  -1.315  27.550  0.00  0.00    +0.008 A 
ATOM      5  C   UNL     1      28.807  -1.593  27.417  0.00  0.00    -0.049 A 
ATOM      6  C   UNL     1      29.321  -2.917  27.995  0.00  0.00    +0.058 C 
ATOM      7  C   UNL     1      30.758  -3.231  27.516  0.00  0.00    +0.018 C 
ATOM      8  C   UNL     1      31.643  -1.979  27.737  0.00  0.00    +0.003 C 
ATOM      9  C   UNL     1      33.184  -2.254  27.686  0.00  0.00    +0.012 C 
ATOM     10  C   UNL     1      33.984  -0.945  28.011  0.00  0.00    +0.024 C 
ATOM     11  C   UNL     1      33.858  -0.499  29.505  0.00  0.00    -0.014 C 
ATOM     12  C   UNL     1      33.500   0.200  27.068  0.00  0.00    -0.011 C 
ATOM     13  C   UNL     1      31.963   0.439  27.097  0.00  0.00    +0.010 C 
ATOM     14  C   UNL     1      31.188  -0.863  26.753  0.00  0.00    +0.030 C 
ATOM     15  C   UNL     1      29.654  -0.682  26.766  0.00  0.00    -0.048 A 
ENDROOT
BRANCH  10  16
ATOM     16  C   UNL     1      35.475  -1.168  27.793  0.00  0.00    +0.109 C 
ATOM     17  N   UNL     1      36.031  -1.112  26.626  0.00  0.00    -0.296 N 
ATOM     18  H   UNL     1      35.532  -0.919  25.745  0.00  0.00    +0.187 HD
ATOM     19  C   UNL     1      37.455  -1.352  26.696  0.00  0.00    +0.156 C 
ATOM     20  C   UNL     1      37.586  -1.562  28.238  0.00  0.00    +0.150 C 
ATOM     21  N   UNL     1      36.245  -1.415  28.769  0.00  0.00    -0.273 NA
ENDBRANCH  10  16
BRANCH   3  22
ATOM     22  O   UNL     1      25.527   0.136  27.108  0.00  0.00    -0.339 OA
ATOM     23  H   UNL     1      25.037  -0.480  27.640  0.00  0.00    +0.246 HD
ENDBRANCH   3  22
BRANCH   9  24
ATOM     24  C   UNL     1      33.663  -2.928  26.359  0.00  0.00    +0.183 C 
BRANCH  24  25
ATOM     25  C   UNL     1      32.870  -2.520  25.206  0.00  0.00    +0.089 C 
ATOM     26  N   UNL     1      32.241  -2.195  24.290  0.00  0.00    -0.304 NA
ENDBRANCH  24  25
ENDBRANCH   9  24
TORSDOF 4
ENDMDL
MODEL 6
REMARK minimizedAffinity -5.52720737
REMARK minimizedRMSD -1
REMARK  Name = 301
REMARK  5 active torsions:
REMARK  status: ('A' for Active; 'I' for Inactive)
REMARK    1  A    between atoms: C_3  and  O_4
REMARK    2  A    between atoms: C_5  and  C_17
REMARK    3  A    between atoms: C_15  and  C_20
REMARK    4  A    between atoms: C_15  and  C_23
REMARK    5  A    between atoms: C_16  and  C_17
REMARK                            x       y       z     vdW  Elec       q    Type
REMARK                         _______ _______ _______ _____ _____    ______ ____
ROOT
ATOM      1  C   UNL     1      30.089   1.331  26.296  0.00  0.00    -0.024 A 
ATOM      2  C   UNL     1      28.778   1.784  26.457  0.00  0.00    +0.000 A 
ATOM      3  C   UNL     1      27.854   1.024  27.174  0.00  0.00    +0.074 A 
ATOM      4  C   UNL     1      28.251  -0.213  27.692  0.00  0.00    +0.008 A 
ATOM      5  C   UNL     1      29.562  -0.673  27.521  0.00  0.00    -0.049 A 
ATOM      6  C   UNL     1      29.891  -2.082  28.027  0.00  0.00    +0.058 C 
ATOM      7  C   UNL     1      31.265  -2.572  27.508  0.00  0.00    +0.018 C 
ATOM      8  C   UNL     1      32.319  -1.468  27.770  0.00  0.00    +0.003 C 
ATOM      9  C   UNL     1      33.805  -1.953  27.679  0.00  0.00    +0.012 C 
ATOM     10  C   UNL     1      34.786  -0.787  28.051  0.00  0.00    +0.024 C 
ATOM     11  C   UNL     1      34.741  -0.402  29.565  0.00  0.00    -0.014 C 
ATOM     12  C   UNL     1      34.457   0.460  27.171  0.00  0.00    -0.011 C 
ATOM     13  C   UNL     1      32.970   0.910  27.239  0.00  0.00    +0.010 C 
ATOM     14  C   UNL     1      32.015  -0.252  26.849  0.00  0.00    +0.030 C 
ATOM     15  C   UNL     1      30.522   0.141  26.898  0.00  0.00    -0.048 A 
ENDROOT
BRANCH  10  16
ATOM     16  C   UNL     1      36.228  -1.206  27.795  0.00  0.00    +0.109 C 
ATOM     17  N   UNL     1      36.785  -1.134  26.629  0.00  0.00    -0.296 N 
ATOM     18  H   UNL     1      36.319  -0.795  25.774  0.00  0.00    +0.187 HD
ATOM     19  C   UNL     1      38.158  -1.584  26.661  0.00  0.00    +0.156 C 
ATOM     20  C   UNL     1      38.258  -1.940  28.177  0.00  0.00    +0.150 C 
ATOM     21  N   UNL     1      36.954  -1.645  28.736  0.00  0.00    -0.273 NA
ENDBRANCH  10  16
BRANCH   3  22
ATOM     22  O   UNL     1      26.556   1.512  27.353  0.00  0.00    -0.339 OA
ATOM     23  H   UNL     1      25.990   0.945  27.865  0.00  0.00    +0.246 HD
ENDBRANCH   3  22
BRANCH   9  24
ATOM     24  C   UNL     1      34.169  -2.623  26.313  0.00  0.00    +0.183 C 
BRANCH  24  25
ATOM     25  C   UNL     1      33.277  -3.724  25.976  0.00  0.00    +0.089 C 
ATOM     26  N   UNL     1      32.569  -4.600  25.706  0.00  0.00    -0.304 NA
ENDBRANCH  24  25
ENDBRANCH   9  24
TORSDOF 4
ENDMDL
MODEL 7
REMARK minimizedAffinity -5.43793488
REMARK minimizedRMSD -1
REMARK  Name = 301
REMARK  5 active torsions:
REMARK  status: ('A' for Active; 'I' for Inactive)
REMARK    1  A    between atoms: C_3  and  O_4
REMARK    2  A    between atoms: C_5  and  C_17
REMARK    3  A    between atoms: C_15  and  C_20
REMARK    4  A    between atoms: C_15  and  C_23
REMARK    5  A    between atoms: C_16  and  C_17
REMARK                            x       y       z     vdW  Elec       q    Type
REMARK                         _______ _______ _______ _____ _____    ______ ____
ROOT
ATOM      1  C   UNL     1      34.799  -1.444  26.313  0.00  0.00    -0.024 A 
ATOM      2  C   UNL     1      36.148  -1.714  26.551  0.00  0.00    +0.000 A 
ATOM      3  C   UNL     1      36.723  -1.396  27.782  0.00  0.00    +0.074 A 
ATOM      4  C   UNL     1      35.939  -0.766  28.753  0.00  0.00    +0.008 A 
ATOM      5  C   UNL     1      34.589  -0.484  28.510  0.00  0.00    -0.049 A 
ATOM      6  C   UNL     1      33.824   0.300  29.584  0.00  0.00    +0.058 C 
ATOM      7  C   UNL     1      32.456   0.800  29.062  0.00  0.00    +0.018 C 
ATOM      8  C   UNL     1      31.713  -0.385  28.395  0.00  0.00    +0.003 C 
ATOM      9  C   UNL     1      30.178  -0.154  28.183  0.00  0.00    +0.012 C 
ATOM     10  C   UNL     1      29.508  -1.441  27.590  0.00  0.00    +0.024 C 
ATOM     11  C   UNL     1      29.445  -2.628  28.606  0.00  0.00    -0.014 C 
ATOM     12  C   UNL     1      30.280  -1.877  26.306  0.00  0.00    -0.011 C 
ATOM     13  C   UNL     1      31.809  -2.066  26.519  0.00  0.00    +0.010 C 
ATOM     14  C   UNL     1      32.459  -0.775  27.088  0.00  0.00    +0.030 C 
ATOM     15  C   UNL     1      33.981  -0.906  27.317  0.00  0.00    -0.048 A 
ENDROOT
BRANCH  10  16
ATOM     16  C   UNL     1      28.057  -1.161  27.223  0.00  0.00    +0.109 C 
ATOM     17  N   UNL     1      27.113  -1.068  28.103  0.00  0.00    -0.296 N 
ATOM     18  H   UNL     1      27.244  -1.175  29.120  0.00  0.00    +0.187 HD
ATOM     19  C   UNL     1      25.833  -0.789  27.492  0.00  0.00    +0.156 C 
ATOM     20  C   UNL     1      26.286  -0.739  26.000  0.00  0.00    +0.150 C 
ATOM     21  N   UNL     1      27.712  -0.998  26.014  0.00  0.00    -0.273 NA
ENDBRANCH  10  16
BRANCH   3  22
ATOM     22  O   UNL     1      38.067  -1.707  28.011  0.00  0.00    -0.339 OA
ATOM     23  H   UNL     1      38.381  -1.473  28.877  0.00  0.00    +0.246 HD
ENDBRANCH   3  22
BRANCH   9  24
ATOM     24  C   UNL     1      29.841   1.128  27.353  0.00  0.00    +0.183 C 
BRANCH  24  25
ATOM     25  C   UNL     1      28.940   2.030  28.059  0.00  0.00    +0.089 C 
ATOM     26  N   UNL     1      28.223   2.746  28.621  0.00  0.00    -0.304 NA
ENDBRANCH  24  25
ENDBRANCH   9  24
TORSDOF 4
ENDMDL
MODEL 8
REMARK minimizedAffinity -5.19421434
REMARK minimizedRMSD -1
REMARK  Name = 301
REMARK  5 active torsions:
REMARK  status: ('A' for Active; 'I' for Inactive)
REMARK    1  A    between atoms: C_3  and  O_4
REMARK    2  A    between atoms: C_5  and  C_17
REMARK    3  A    between atoms: C_15  and  C_20
REMARK    4  A    between atoms: C_15  and  C_23
REMARK    5  A    between atoms: C_16  and  C_17
REMARK                            x       y       z     vdW  Elec       q    Type
REMARK                         _______ _______ _______ _____ _____    ______ ____
ROOT
ATOM      1  C   UNL     1      32.666  -1.780  22.680  0.00  0.00    -0.024 A 
ATOM      2  C   UNL     1      32.326  -2.249  23.950  0.00  0.00    +0.000 A 
ATOM      3  C   UNL     1      32.338  -3.617  24.222  0.00  0.00    +0.074 A 
ATOM      4  C   UNL     1      32.657  -4.509  23.193  0.00  0.00    +0.008 A 
ATOM      5  C   UNL     1      32.988  -4.039  21.916  0.00  0.00    -0.049 A 
ATOM      6  C   UNL     1      33.224  -5.081  20.816  0.00  0.00    +0.058 C 
ATOM      7  C   UNL     1      33.276  -4.431  19.413  0.00  0.00    +0.018 C 
ATOM      8  C   UNL     1      34.248  -3.226  19.457  0.00  0.00    +0.003 C 
ATOM      9  C   UNL     1      34.720  -2.719  18.053  0.00  0.00    +0.012 C 
ATOM     10  C   UNL     1      35.767  -1.562  18.212  0.00  0.00    +0.024 C 
ATOM     11  C   UNL     1      37.142  -2.048  18.778  0.00  0.00    -0.014 C 
ATOM     12  C   UNL     1      35.171  -0.453  19.134  0.00  0.00    -0.011 C 
ATOM     13  C   UNL     1      34.671  -0.975  20.511  0.00  0.00    +0.010 C 
ATOM     14  C   UNL     1      33.620  -2.105  20.333  0.00  0.00    +0.030 C 
ATOM     15  C   UNL     1      33.086  -2.660  21.673  0.00  0.00    -0.048 A 
ENDROOT
BRANCH  10  16
ATOM     16  C   UNL     1      36.094  -0.954  16.855  0.00  0.00    +0.109 C 
ATOM     17  N   UNL     1      36.611  -1.635  15.884  0.00  0.00    -0.296 N 
ATOM     18  H   UNL     1      36.851  -2.637  15.930  0.00  0.00    +0.187 HD
ATOM     19  C   UNL     1      36.813  -0.823  14.705  0.00  0.00    +0.156 C 
ATOM     20  C   UNL     1      36.267   0.533  15.252  0.00  0.00    +0.150 C 
ATOM     21  N   UNL     1      35.861   0.270  16.618  0.00  0.00    -0.273 NA
ENDBRANCH  10  16
BRANCH   3  22
ATOM     22  O   UNL     1      32.027  -4.064  25.510  0.00  0.00    -0.339 OA
ATOM     23  H   UNL     1      32.072  -5.007  25.620  0.00  0.00    +0.246 HD
ENDBRANCH   3  22
BRANCH   9  24
ATOM     24  C   UNL     1      33.547  -2.330  17.094  0.00  0.00    +0.183 C 
BRANCH  24  25
ATOM     25  C   UNL     1      33.565  -3.091  15.852  0.00  0.00    +0.089 C 
ATOM     26  N   UNL     1      33.580  -3.698  14.865  0.00  0.00    -0.304 NA
ENDBRANCH  24  25
ENDBRANCH   9  24
TORSDOF 4
ENDMDL
MODEL 9
REMARK minimizedAffinity -4.39426804
REMARK minimizedRMSD -1
REMARK  Name = 301
REMARK  5 active torsions:
REMARK  status: ('A' for Active; 'I' for Inactive)
REMARK    1  A    between atoms: C_3  and  O_4
REMARK    2  A    between atoms: C_5  and  C_17
REMARK    3  A    between atoms: C_15  and  C_20
REMARK    4  A    between atoms: C_15  and  C_23
REMARK    5  A    between atoms: C_16  and  C_17
REMARK                            x       y       z     vdW  Elec       q    Type
REMARK                         _______ _______ _______ _____ _____    ______ ____
ROOT
ATOM      1  C   UNL     1      27.512   1.060  27.358  0.00  0.00    -0.024 A 
ATOM      2  C   UNL     1      26.130   0.950  27.196  0.00  0.00    +0.000 A 
ATOM      3  C   UNL     1      25.573  -0.221  26.678  0.00  0.00    +0.074 A 
ATOM      4  C   UNL     1      26.424  -1.260  26.289  0.00  0.00    +0.008 A 
ATOM      5  C   UNL     1      27.811  -1.145  26.442  0.00  0.00    -0.049 A 
ATOM      6  C   UNL     1      28.681  -2.285  25.898  0.00  0.00    +0.058 C 
ATOM      7  C   UNL     1      30.178  -1.893  25.857  0.00  0.00    +0.018 C 
ATOM      8  C   UNL     1      30.577  -1.301  27.232  0.00  0.00    +0.003 C 
ATOM      9  C   UNL     1      32.120  -1.235  27.489  0.00  0.00    +0.012 C 
ATOM     10  C   UNL     1      32.412  -0.710  28.938  0.00  0.00    +0.024 C 
ATOM     11  C   UNL     1      32.016  -1.729  30.055  0.00  0.00    -0.014 C 
ATOM     12  C   UNL     1      31.660   0.641  29.155  0.00  0.00    -0.011 C 
ATOM     13  C   UNL     1      30.134   0.573  28.860  0.00  0.00    +0.010 C 
ATOM     14  C   UNL     1      29.866   0.070  27.415  0.00  0.00    +0.030 C 
ATOM     15  C   UNL     1      28.363  -0.016  27.067  0.00  0.00    -0.048 A 
ENDROOT
BRANCH  10  16
ATOM     16  C   UNL     1      33.905  -0.480  29.127  0.00  0.00    +0.109 C 
ATOM     17  N   UNL     1      34.790  -1.401  28.922  0.00  0.00    -0.296 N 
ATOM     18  H   UNL     1      34.579  -2.364  28.619  0.00  0.00    +0.187 HD
ATOM     19  C   UNL     1      36.132  -0.921  29.165  0.00  0.00    +0.156 C 
ATOM     20  C   UNL     1      35.791   0.548  29.568  0.00  0.00    +0.150 C 
ATOM     21  N   UNL     1      34.347   0.650  29.494  0.00  0.00    -0.273 NA
ENDBRANCH  10  16
BRANCH   3  22
ATOM     22  O   UNL     1      24.184  -0.324  26.555  0.00  0.00    -0.339 OA
ATOM     23  H   UNL     1      23.882  -1.156  26.210  0.00  0.00    +0.246 HD
ENDBRANCH   3  22
BRANCH   9  24
ATOM     24  C   UNL     1      32.908  -0.437  26.399  0.00  0.00    +0.183 C 
BRANCH  24  25
ATOM     25  C   UNL     1      32.684   1.000  26.486  0.00  0.00    +0.089 C 
ATOM     26  N   UNL     1      32.506   2.142  26.558  0.00  0.00    -0.304 NA
ENDBRANCH  24  25
ENDBRANCH   9  24
TORSDOF 4
ENDMDL
MODEL 10
REMARK minimizedAffinity -4.25363159
REMARK minimizedRMSD -1
REMARK  Name = 301
REMARK  5 active torsions:
REMARK  status: ('A' for Active; 'I' for Inactive)
REMARK    1  A    between atoms: C_3  and  O_4
REMARK    2  A    between atoms: C_5  and  C_17
REMARK    3  A    between atoms: C_15  and  C_20
REMARK    4  A    between atoms: C_15  and  C_23
REMARK    5  A    between atoms: C_16  and  C_17
REMARK                            x       y       z     vdW  Elec       q    Type
REMARK                         _______ _______ _______ _____ _____    ______ ____
ROOT
ATOM      1  C   UNL     1      35.891   1.196  16.158  0.00  0.00    -0.024 A 
ATOM      2  C   UNL     1      36.918   1.776  15.410  0.00  0.00    +0.000 A 
ATOM      3  C   UNL     1      38.249   1.442  15.664  0.00  0.00    +0.074 A 
ATOM      4  C   UNL     1      38.537   0.552  16.703  0.00  0.00    +0.008 A 
ATOM      5  C   UNL     1      37.508  -0.022  17.460  0.00  0.00    -0.049 A 
ATOM      6  C   UNL     1      37.910  -0.906  18.647  0.00  0.00    +0.058 C 
ATOM      7  C   UNL     1      36.702  -1.217  19.564  0.00  0.00    +0.018 C 
ATOM      8  C   UNL     1      35.524  -1.711  18.687  0.00  0.00    +0.003 C 
ATOM      9  C   UNL     1      34.387  -2.441  19.478  0.00  0.00    +0.012 C 
ATOM     10  C   UNL     1      33.293  -2.979  18.491  0.00  0.00    +0.024 C 
ATOM     11  C   UNL     1      33.790  -4.171  17.610  0.00  0.00    -0.014 C 
ATOM     12  C   UNL     1      32.802  -1.809  17.582  0.00  0.00    -0.011 C 
ATOM     13  C   UNL     1      33.944  -1.067  16.831  0.00  0.00    +0.010 C 
ATOM     14  C   UNL     1      35.007  -0.524  17.826  0.00  0.00    +0.030 C 
ATOM     15  C   UNL     1      36.166   0.226  17.132  0.00  0.00    -0.048 A 
ENDROOT
BRANCH  10  16
ATOM     16  C   UNL     1      32.106  -3.533  19.268  0.00  0.00    +0.109 C 
ATOM     17  N   UNL     1      32.204  -4.530  20.088  0.00  0.00    -0.296 N 
ATOM     18  H   UNL     1      33.077  -5.040  20.291  0.00  0.00    +0.187 HD
ATOM     19  C   UNL     1      30.934  -4.850  20.700  0.00  0.00    +0.156 C 
ATOM     20  C   UNL     1      30.056  -3.758  20.013  0.00  0.00    +0.150 C 
ATOM     21  N   UNL     1      30.952  -3.023  19.143  0.00  0.00    -0.273 NA
ENDBRANCH  10  16
BRANCH   3  22
ATOM     22  O   UNL     1      39.259   2.009  14.881  0.00  0.00    -0.339 OA
ATOM     23  H   UNL     1      40.137   1.721  15.105  0.00  0.00    +0.246 HD
ENDBRANCH   3  22
BRANCH   9  24
ATOM     24  C   UNL     1      33.773  -1.587  20.636  0.00  0.00    +0.183 C 
BRANCH  24  25
ATOM     25  C   UNL     1      33.390  -2.397  21.785  0.00  0.00    +0.089 C 
ATOM     26  N   UNL     1      33.083  -3.040  22.698  0.00  0.00    -0.304 NA
ENDBRANCH  24  25
ENDBRANCH   9  24
TORSDOF 4
ENDMDL
MODEL 11
REMARK minimizedAffinity -4.13835001
REMARK minimizedRMSD -1
REMARK  Name = 301
REMARK  5 active torsions:
REMARK  status: ('A' for Active; 'I' for Inactive)
REMARK    1  A    between atoms: C_3  and  O_4
REMARK    2  A    between atoms: C_5  and  C_17
REMARK    3  A    between atoms: C_15  and  C_20
REMARK    4  A    between atoms: C_15  and  C_23
REMARK    5  A    between atoms: C_16  and  C_17
REMARK                            x       y       z     vdW  Elec       q    Type
REMARK                         _______ _______ _______ _____ _____    ______ ____
ROOT
ATOM      1  C   UNL     1      36.566  -1.516  26.269  0.00  0.00    -0.024 A 
ATOM      2  C   UNL     1      37.850  -2.039  26.437  0.00  0.00    +0.000 A 
ATOM      3  C   UNL     1      38.400  -2.160  27.714  0.00  0.00    +0.074 A 
ATOM      4  C   UNL     1      37.662  -1.712  28.814  0.00  0.00    +0.008 A 
ATOM      5  C   UNL     1      36.378  -1.177  28.645  0.00  0.00    -0.049 A 
ATOM      6  C   UNL     1      35.676  -0.615  29.887  0.00  0.00    +0.058 C 
ATOM      7  C   UNL     1      34.420   0.208  29.511  0.00  0.00    +0.018 C 
ATOM      8  C   UNL     1      33.554  -0.624  28.531  0.00  0.00    +0.003 C 
ATOM      9  C   UNL     1      32.081  -0.119  28.376  0.00  0.00    +0.012 C 
ATOM     10  C   UNL     1      31.268  -1.079  27.439  0.00  0.00    +0.024 C 
ATOM     11  C   UNL     1      30.988  -2.476  28.082  0.00  0.00    -0.014 C 
ATOM     12  C   UNL     1      32.038  -1.254  26.093  0.00  0.00    -0.011 C 
ATOM     13  C   UNL     1      33.512  -1.720  26.261  0.00  0.00    +0.010 C 
ATOM     14  C   UNL     1      34.306  -0.746  27.175  0.00  0.00    +0.030 C 
ATOM     15  C   UNL     1      35.781  -1.160  27.375  0.00  0.00    -0.048 A 
ENDROOT
BRANCH  10  16
ATOM     16  C   UNL     1      29.891  -0.496  27.149  0.00  0.00    +0.109 C 
ATOM     17  N   UNL     1      28.926  -0.510  28.011  0.00  0.00    -0.296 N 
ATOM     18  H   UNL     1      28.988  -0.910  28.959  0.00  0.00    +0.187 HD
ATOM     19  C   UNL     1      27.730   0.114  27.489  0.00  0.00    +0.156 C 
ATOM     20  C   UNL     1      28.263   0.504  26.074  0.00  0.00    +0.150 C 
ATOM     21  N   UNL     1      29.636   0.042  26.031  0.00  0.00    -0.273 NA
ENDBRANCH  10  16
BRANCH   3  22
ATOM     22  O   UNL     1      39.673  -2.718  27.861  0.00  0.00    -0.339 OA
ATOM     23  H   UNL     1      39.972  -2.781  28.762  0.00  0.00    +0.246 HD
ENDBRANCH   3  22
BRANCH   9  24
ATOM     24  C   UNL     1      31.968   1.377  27.934  0.00  0.00    +0.183 C 
BRANCH  24  25
ATOM     25  C   UNL     1      32.815   1.686  26.788  0.00  0.00    +0.089 C 
ATOM     26  N   UNL     1      33.487   1.934  25.879  0.00  0.00    -0.304 NA
ENDBRANCH  24  25
ENDBRANCH   9  24
TORSDOF 4
ENDMDL
MODEL 12
REMARK minimizedAffinity -4.07320881
REMARK minimizedRMSD -1
REMARK  Name = 301
REMARK  5 active torsions:
REMARK  status: ('A' for Active; 'I' for Inactive)
REMARK    1  A    between atoms: C_3  and  O_4
REMARK    2  A    between atoms: C_5  and  C_17
REMARK    3  A    between atoms: C_15  and  C_20
REMARK    4  A    between atoms: C_15  and  C_23
REMARK    5  A    between atoms: C_16  and  C_17
REMARK                            x       y       z     vdW  Elec       q    Type
REMARK                         _______ _______ _______ _____ _____    ______ ____
ROOT
ATOM      1  C   UNL     1      32.869  -4.186  23.833  0.00  0.00    -0.024 A 
ATOM      2  C   UNL     1      32.939  -4.857  22.611  0.00  0.00    +0.000 A 
ATOM      3  C   UNL     1      32.388  -4.288  21.462  0.00  0.00    +0.074 A 
ATOM      4  C   UNL     1      31.730  -3.058  21.565  0.00  0.00    +0.008 A 
ATOM      5  C   UNL     1      31.650  -2.390  22.793  0.00  0.00    -0.049 A 
ATOM      6  C   UNL     1      30.825  -1.098  22.844  0.00  0.00    +0.058 C 
ATOM      7  C   UNL     1      30.570  -0.639  24.300  0.00  0.00    +0.018 C 
ATOM      8  C   UNL     1      31.916  -0.643  25.067  0.00  0.00    +0.003 C 
ATOM      9  C   UNL     1      31.904   0.169  26.406  0.00  0.00    +0.012 C 
ATOM     10  C   UNL     1      33.332   0.178  27.054  0.00  0.00    +0.024 C 
ATOM     11  C   UNL     1      34.367   1.032  26.253  0.00  0.00    -0.014 C 
ATOM     12  C   UNL     1      33.842  -1.291  27.191  0.00  0.00    -0.011 C 
ATOM     13  C   UNL     1      33.815  -2.099  25.863  0.00  0.00    +0.010 C 
ATOM     14  C   UNL     1      32.388  -2.114  25.247  0.00  0.00    +0.030 C 
ATOM     15  C   UNL     1      32.302  -2.906  23.923  0.00  0.00    -0.048 A 
ENDROOT
BRANCH  10  16
ATOM     16  C   UNL     1      33.282   0.815  28.436  0.00  0.00    +0.109 C 
ATOM     17  N   UNL     1      32.184   1.229  28.981  0.00  0.00    -0.296 N 
ATOM     18  H   UNL     1      31.252   1.174  28.543  0.00  0.00    +0.187 HD
ATOM     19  C   UNL     1      32.412   1.784  30.296  0.00  0.00    +0.156 C 
ATOM     20  C   UNL     1      33.958   1.578  30.378  0.00  0.00    +0.150 C 
ATOM     21  N   UNL     1      34.338   0.961  29.123  0.00  0.00    -0.273 NA
ENDBRANCH  10  16
BRANCH   3  22
ATOM     22  O   UNL     1      32.500  -4.962  20.242  0.00  0.00    -0.339 OA
ATOM     23  H   UNL     1      32.113  -4.504  19.504  0.00  0.00    +0.246 HD
ENDBRANCH   3  22
BRANCH   9  24
ATOM     24  C   UNL     1      30.798  -0.290  27.413  0.00  0.00    +0.183 C 
BRANCH  24  25
ATOM     25  C   UNL     1      29.547   0.437  27.238  0.00  0.00    +0.089 C 
ATOM     26  N   UNL     1      28.552   1.014  27.101  0.00  0.00    -0.304 NA
ENDBRANCH  24  25
ENDBRANCH   9  24
TORSDOF 4
ENDMDL
MODEL 13
REMARK minimizedAffinity -3.92807579
REMARK minimizedRMSD -1
REMARK  Name = 301
REMARK  5 active torsions:
REMARK  status: ('A' for Active; 'I' for Inactive)
REMARK    1  A    between atoms: C_3  and  O_4
REMARK    2  A    between atoms: C_5  and  C_17
REMARK    3  A    between atoms: C_15  and  C_20
REMARK    4  A    between atoms: C_15  and  C_23
REMARK    5  A    between atoms: C_16  and  C_17
REMARK                            x       y       z     vdW  Elec       q    Type
REMARK                         _______ _______ _______ _____ _____    ______ ____
ROOT
ATOM      1  C   UNL     1      28.458  -0.026  28.171  0.00  0.00    -0.024 A 
ATOM      2  C   UNL     1      27.072  -0.138  28.049  0.00  0.00    +0.000 A 
ATOM      3  C   UNL     1      26.499  -0.501  26.830  0.00  0.00    +0.074 A 
ATOM      4  C   UNL     1      27.333  -0.708  25.726  0.00  0.00    +0.008 A 
ATOM      5  C   UNL     1      28.723  -0.586  25.845  0.00  0.00    -0.049 A 
ATOM      6  C   UNL     1      29.559  -0.729  24.568  0.00  0.00    +0.058 C 
ATOM      7  C   UNL     1      31.022  -0.273  24.788  0.00  0.00    +0.018 C 
ATOM      8  C   UNL     1      31.570  -0.956  26.066  0.00  0.00    +0.003 C 
ATOM      9  C   UNL     1      33.130  -0.924  26.201  0.00  0.00    +0.012 C 
ATOM     10  C   UNL     1      33.585  -1.718  27.475  0.00  0.00    +0.024 C 
ATOM     11  C   UNL     1      33.376  -3.262  27.347  0.00  0.00    -0.014 C 
ATOM     12  C   UNL     1      32.815  -1.175  28.720  0.00  0.00    -0.011 C 
ATOM     13  C   UNL     1      31.269  -1.175  28.559  0.00  0.00    +0.010 C 
ATOM     14  C   UNL     1      30.836  -0.368  27.304  0.00  0.00    +0.030 C 
ATOM     15  C   UNL     1      29.305  -0.333  27.097  0.00  0.00    -0.048 A 
ENDROOT
BRANCH  10  16
ATOM     16  C   UNL     1      35.080  -1.541  27.703  0.00  0.00    +0.109 C 
ATOM     17  N   UNL     1      35.959  -1.711  26.768  0.00  0.00    -0.296 N 
ATOM     18  H   UNL     1      35.741  -1.979  25.797  0.00  0.00    +0.187 HD
ATOM     19  C   UNL     1      37.303  -1.474  27.245  0.00  0.00    +0.156 C 
ATOM     20  C   UNL     1      36.971  -1.112  28.727  0.00  0.00    +0.150 C 
ATOM     21  N   UNL     1      35.530  -1.208  28.840  0.00  0.00    -0.273 NA
ENDBRANCH  10  16
BRANCH   3  22
ATOM     22  O   UNL     1      25.111  -0.640  26.738  0.00  0.00    -0.339 OA
ATOM     23  H   UNL     1      24.799  -0.904  25.880  0.00  0.00    +0.246 HD
ENDBRANCH   3  22
BRANCH   9  24
ATOM     24  C   UNL     1      33.740   0.515  26.149  0.00  0.00    +0.183 C 
BRANCH  24  25
ATOM     25  C   UNL     1      33.200   1.389  27.183  0.00  0.00    +0.089 C 
ATOM     26  N   UNL     1      32.769   2.084  28.004  0.00  0.00    -0.304 NA
ENDBRANCH  24  25
ENDBRANCH   9  24
TORSDOF 4
ENDMDL
MODEL 14
REMARK minimizedAffinity -3.78333759
REMARK minimizedRMSD -1
REMARK  Name = 301
REMARK  5 active torsions:
REMARK  status: ('A' for Active; 'I' for Inactive)
REMARK    1  A    between atoms: C_3  and  O_4
REMARK    2  A    between atoms: C_5  and  C_17
REMARK    3  A    between atoms: C_15  and  C_20
REMARK    4  A    between atoms: C_15  and  C_23
REMARK    5  A    between atoms: C_16  and  C_17
REMARK                            x       y       z     vdW  Elec       q    Type
REMARK                         _______ _______ _______ _____ _____    ______ ____
ROOT
ATOM      1  C   UNL     1      35.396  -2.412  26.353  0.00  0.00    -0.024 A 
ATOM      2  C   UNL     1      36.786  -2.395  26.486  0.00  0.00    +0.000 A 
ATOM      3  C   UNL     1      37.438  -1.235  26.904  0.00  0.00    +0.074 A 
ATOM      4  C   UNL     1      36.683  -0.083  27.148  0.00  0.00    +0.008 A 
ATOM      5  C   UNL     1      35.290  -0.098  27.006  0.00  0.00    -0.049 A 
ATOM      6  C   UNL     1      34.545   1.229  27.192  0.00  0.00    +0.058 C 
ATOM      7  C   UNL     1      33.077   1.134  26.711  0.00  0.00    +0.018 C 
ATOM      8  C   UNL     1      32.429  -0.128  27.334  0.00  0.00    +0.003 C 
ATOM      9  C   UNL     1      30.864  -0.149  27.279  0.00  0.00    +0.012 C 
ATOM     10  C   UNL     1      30.308  -1.418  28.015  0.00  0.00    +0.024 C 
ATOM     11  C   UNL     1      30.504  -1.368  29.565  0.00  0.00    -0.014 C 
ATOM     12  C   UNL     1      30.995  -2.692  27.430  0.00  0.00    -0.011 C 
ATOM     13  C   UNL     1      32.549  -2.643  27.454  0.00  0.00    +0.010 C 
ATOM     14  C   UNL     1      33.081  -1.391  26.704  0.00  0.00    +0.030 C 
ATOM     15  C   UNL     1      34.623  -1.293  26.695  0.00  0.00    -0.048 A 
ENDROOT
BRANCH  10  16
ATOM     16  C   UNL     1      28.803  -1.531  27.813  0.00  0.00    +0.109 C 
ATOM     17  N   UNL     1      28.013  -0.506  27.822  0.00  0.00    -0.296 N 
ATOM     18  H   UNL     1      28.316   0.469  27.966  0.00  0.00    +0.187 HD
ATOM     19  C   UNL     1      26.636  -0.886  27.598  0.00  0.00    +0.156 C 
ATOM     20  C   UNL     1      26.835  -2.427  27.451  0.00  0.00    +0.150 C 
ATOM     21  N   UNL     1      28.256  -2.657  27.617  0.00  0.00    -0.273 NA
ENDBRANCH  10  16
BRANCH   3  22
ATOM     22  O   UNL     1      38.828  -1.249  27.063  0.00  0.00    -0.339 OA
ATOM     23  H   UNL     1      39.196  -0.427  27.365  0.00  0.00    +0.246 HD
ENDBRANCH   3  22
BRANCH   9  24
ATOM     24  C   UNL     1      30.279   0.004  25.837  0.00  0.00    +0.183 C 
BRANCH  24  25
ATOM     25  C   UNL     1      30.936  -0.869  24.872  0.00  0.00    +0.089 C 
ATOM     26  N   UNL     1      31.458  -1.564  24.107  0.00  0.00    -0.304 NA
ENDBRANCH  24  25
ENDBRANCH   9  24
TORSDOF 4
ENDMDL
MODEL 15
REMARK minimizedAffinity -3.09573865
REMARK minimizedRMSD -1
REMARK  Name = 301
REMARK  5 active torsions:
REMARK  status: ('A' for Active; 'I' for Inactive)
REMARK    1  A    between atoms: C_3  and  O_4
REMARK    2  A    between atoms: C_5  and  C_17
REMARK    3  A    between atoms: C_15  and  C_20
REMARK    4  A    between atoms: C_15  and  C_23
REMARK    5  A    between atoms: C_16  and  C_17
REMARK                            x       y       z     vdW  Elec       q    Type
REMARK                         _______ _______ _______ _____ _____    ______ ____
ROOT
ATOM      1  C   UNL     1      28.003  -0.152  25.872  0.00  0.00    -0.024 A 
ATOM      2  C   UNL     1      26.612  -0.035  25.862  0.00  0.00    +0.000 A 
ATOM      3  C   UNL     1      25.843  -0.695  26.822  0.00  0.00    +0.074 A 
ATOM      4  C   UNL     1      26.486  -1.504  27.765  0.00  0.00    +0.008 A 
ATOM      5  C   UNL     1      27.881  -1.629  27.768  0.00  0.00    -0.049 A 
ATOM      6  C   UNL     1      28.501  -2.614  28.766  0.00  0.00    +0.058 C 
ATOM      7  C   UNL     1      29.995  -2.878  28.457  0.00  0.00    +0.018 C 
ATOM      8  C   UNL     1      30.714  -1.518  28.274  0.00  0.00    +0.003 C 
ATOM      9  C   UNL     1      32.276  -1.592  28.359  0.00  0.00    +0.012 C 
ATOM     10  C   UNL     1      32.898  -0.157  28.253  0.00  0.00    +0.024 C 
ATOM     11  C   UNL     1      32.620   0.730  29.510  0.00  0.00    -0.014 C 
ATOM     12  C   UNL     1      32.352   0.546  26.971  0.00  0.00    -0.011 C 
ATOM     13  C   UNL     1      30.800   0.580  26.878  0.00  0.00    +0.010 C 
ATOM     14  C   UNL     1      30.203  -0.852  26.964  0.00  0.00    +0.030 C 
ATOM     15  C   UNL     1      28.661  -0.878  26.875  0.00  0.00    -0.048 A 
ENDROOT
BRANCH  10  16
ATOM     16  C   UNL     1      34.416  -0.243  28.161  0.00  0.00    +0.109 C 
ATOM     17  N   UNL     1      35.168  -0.515  29.178  0.00  0.00    -0.296 N 
ATOM     18  H   UNL     1      34.824  -0.695  30.133  0.00  0.00    +0.187 HD
ATOM     19  C   UNL     1      36.568  -0.545  28.818  0.00  0.00    +0.156 C 
ATOM     20  C   UNL     1      36.432  -0.215  27.298  0.00  0.00    +0.150 C 
ATOM     21  N   UNL     1      35.012  -0.053  27.058  0.00  0.00    -0.273 NA
ENDBRANCH  10  16
BRANCH   3  22
ATOM     22  O   UNL     1      24.454  -0.537  26.815  0.00  0.00    -0.339 OA
ATOM     23  H   UNL     1      24.003  -1.005  27.509  0.00  0.00    +0.246 HD
ENDBRANCH   3  22
BRANCH   9  24
ATOM     24  C   UNL     1      32.918  -2.594  27.343  0.00  0.00    +0.183 C 
BRANCH  24  25
ATOM     25  C   UNL     1      31.946  -3.136  26.403  0.00  0.00    +0.089 C 
ATOM     26  N   UNL     1      31.174  -3.569  25.655  0.00  0.00    -0.304 NA
ENDBRANCH  24  25
ENDBRANCH   9  24
TORSDOF 4
ENDMDL
MODEL 16
REMARK minimizedAffinity -0.875763118
REMARK minimizedRMSD -1
REMARK  Name = 301
REMARK  5 active torsions:
REMARK  status: ('A' for Active; 'I' for Inactive)
REMARK    1  A    between atoms: C_3  and  O_4
REMARK    2  A    between atoms: C_5  and  C_17
REMARK    3  A    between atoms: C_15  and  C_20
REMARK    4  A    between atoms: C_15  and  C_23
REMARK    5  A    between atoms: C_16  and  C_17
REMARK                            x       y       z     vdW  Elec       q    Type
REMARK                         _______ _______ _______ _____ _____    ______ ____
ROOT
ATOM      1  C   UNL     1      31.660  -3.557  18.079  0.00  0.00    -0.024 A 
ATOM      2  C   UNL     1      31.999  -3.764  16.740  0.00  0.00    +0.000 A 
ATOM      3  C   UNL     1      33.250  -3.371  16.262  0.00  0.00    +0.074 A 
ATOM      4  C   UNL     1      34.137  -2.731  17.133  0.00  0.00    +0.008 A 
ATOM      5  C   UNL     1      33.793  -2.513  18.473  0.00  0.00    -0.049 A 
ATOM      6  C   UNL     1      34.777  -1.715  19.337  0.00  0.00    +0.058 C 
ATOM      7  C   UNL     1      34.143  -1.291  20.683  0.00  0.00    +0.018 C 
ATOM      8  C   UNL     1      33.483  -2.532  21.336  0.00  0.00    +0.003 C 
ATOM      9  C   UNL     1      33.160  -2.370  22.860  0.00  0.00    +0.012 C 
ATOM     10  C   UNL     1      32.582  -3.707  23.442  0.00  0.00    +0.024 C 
ATOM     11  C   UNL     1      33.644  -4.851  23.530  0.00  0.00    -0.014 C 
ATOM     12  C   UNL     1      31.373  -4.166  22.568  0.00  0.00    -0.011 C 
ATOM     13  C   UNL     1      31.695  -4.287  21.051  0.00  0.00    +0.010 C 
ATOM     14  C   UNL     1      32.247  -2.947  20.489  0.00  0.00    +0.030 C 
ATOM     15  C   UNL     1      32.583  -3.009  18.982  0.00  0.00    -0.048 A 
ENDROOT
BRANCH  10  16
ATOM     16  C   UNL     1      32.107  -3.500  24.873  0.00  0.00    +0.109 C 
ATOM     17  N   UNL     1      30.892  -3.166  25.170  0.00  0.00    -0.296 N 
ATOM     18  H   UNL     1      30.141  -3.008  24.483  0.00  0.00    +0.187 HD
ATOM     19  C   UNL     1      30.702  -3.042  26.598  0.00  0.00    +0.156 C 
ATOM     20  C   UNL     1      32.149  -3.401  27.064  0.00  0.00    +0.150 C 
ATOM     21  N   UNL     1      32.899  -3.656  25.850  0.00  0.00    -0.273 NA
ENDBRANCH  10  16
BRANCH   3  22
ATOM     22  O   UNL     1      33.582  -3.619  14.926  0.00  0.00    -0.339 OA
ATOM     23  H   UNL     1      34.455  -3.336  14.681  0.00  0.00    +0.246 HD
ENDBRANCH   3  22
BRANCH   9  24
ATOM     24  C   UNL     1      32.252  -1.139  23.186  0.00  0.00    +0.183 C 
BRANCH  24  25
ATOM     25  C   UNL     1      32.634  -0.476  24.427  0.00  0.00    +0.089 C 
ATOM     26  N   UNL     1      32.939   0.049  25.413  0.00  0.00    -0.304 NA
ENDBRANCH  24  25
ENDBRANCH   9  24
TORSDOF 4
ENDMDL
MODEL 17
REMARK minimizedAffinity 0.695209563
REMARK minimizedRMSD -1
REMARK  Name = 301
REMARK  5 active torsions:
REMARK  status: ('A' for Active; 'I' for Inactive)
REMARK    1  A    between atoms: C_3  and  O_4
REMARK    2  A    between atoms: C_5  and  C_17
REMARK    3  A    between atoms: C_15  and  C_20
REMARK    4  A    between atoms: C_15  and  C_23
REMARK    5  A    between atoms: C_16  and  C_17
REMARK                            x       y       z     vdW  Elec       q    Type
REMARK                         _______ _______ _______ _____ _____    ______ ____
ROOT
ATOM      1  C   UNL     1      36.329   2.279  15.862  0.00  0.00    -0.024 A 
ATOM      2  C   UNL     1      37.288   2.975  15.124  0.00  0.00    +0.000 A 
ATOM      3  C   UNL     1      38.592   2.488  15.026  0.00  0.00    +0.074 A 
ATOM      4  C   UNL     1      38.930   1.316  15.711  0.00  0.00    +0.008 A 
ATOM      5  C   UNL     1      37.971   0.623  16.460  0.00  0.00    -0.049 A 
ATOM      6  C   UNL     1      38.443  -0.593  17.265  0.00  0.00    +0.058 C 
ATOM      7  C   UNL     1      37.366  -1.069  18.269  0.00  0.00    +0.018 C 
ATOM      8  C   UNL     1      36.014  -1.202  17.525  0.00  0.00    +0.003 C 
ATOM      9  C   UNL     1      34.935  -2.046  18.284  0.00  0.00    +0.012 C 
ATOM     10  C   UNL     1      33.642  -2.195  17.408  0.00  0.00    +0.024 C 
ATOM     11  C   UNL     1      33.846  -3.113  16.159  0.00  0.00    -0.014 C 
ATOM     12  C   UNL     1      33.160  -0.780  16.959  0.00  0.00    -0.011 C 
ATOM     13  C   UNL     1      34.251   0.064  16.241  0.00  0.00    +0.010 C 
ATOM     14  C   UNL     1      35.516   0.218  17.131  0.00  0.00    +0.030 C 
ATOM     15  C   UNL     1      36.634   1.051  16.466  0.00  0.00    -0.048 A 
ENDROOT
BRANCH  10  16
ATOM     16  C   UNL     1      32.534  -2.864  18.210  0.00  0.00    +0.109 C 
ATOM     17  N   UNL     1      31.472  -3.362  17.664  0.00  0.00    -0.296 N 
ATOM     18  H   UNL     1      31.272  -3.355  16.652  0.00  0.00    +0.187 HD
ATOM     19  C   UNL     1      30.584  -3.944  18.645  0.00  0.00    +0.156 C 
ATOM     20  C   UNL     1      31.423  -3.652  19.929  0.00  0.00    +0.150 C 
ATOM     21  N   UNL     1      32.614  -2.965  19.471  0.00  0.00    -0.273 NA
ENDBRANCH  10  16
BRANCH   3  22
ATOM     22  O   UNL     1      39.528   3.183  14.253  0.00  0.00    -0.339 OA
ATOM     23  H   UNL     1      40.388   2.780  14.224  0.00  0.00    +0.246 HD
ENDBRANCH   3  22
BRANCH   9  24
ATOM     24  C   UNL     1      34.619  -1.522  19.723  0.00  0.00    +0.183 C 
BRANCH  24  25
ATOM     25  C   UNL     1      35.134  -2.403  20.764  0.00  0.00    +0.089 C 
ATOM     26  N   UNL     1      35.545  -3.101  21.592  0.00  0.00    -0.304 NA
ENDBRANCH  24  25
ENDBRANCH   9  24
TORSDOF 4
ENDMDL
MODEL 18
REMARK minimizedAffinity 2.3030839
REMARK minimizedRMSD -1
REMARK  Name = 301
REMARK  5 active torsions:
REMARK  status: ('A' for Active; 'I' for Inactive)
REMARK    1  A    between atoms: C_3  and  O_4
REMARK    2  A    between atoms: C_5  and  C_17
REMARK    3  A    between atoms: C_15  and  C_20
REMARK    4  A    between atoms: C_15  and  C_23
REMARK    5  A    between atoms: C_16  and  C_17
REMARK                            x       y       z     vdW  Elec       q    Type
REMARK                         _______ _______ _______ _____ _____    ______ ____
ROOT
ATOM      1  C   UNL     1      34.885  -0.425  26.838  0.00  0.00    -0.024 A 
ATOM      2  C   UNL     1      35.604  -0.322  28.031  0.00  0.00    +0.000 A 
ATOM      3  C   UNL     1      35.109  -0.897  29.203  0.00  0.00    +0.074 A 
ATOM      4  C   UNL     1      33.867  -1.539  29.170  0.00  0.00    +0.008 A 
ATOM      5  C   UNL     1      33.141  -1.633  27.976  0.00  0.00    -0.049 A 
ATOM      6  C   UNL     1      31.744  -2.260  28.044  0.00  0.00    +0.058 C 
ATOM      7  C   UNL     1      30.946  -2.024  26.739  0.00  0.00    +0.018 C 
ATOM      8  C   UNL     1      31.835  -2.419  25.533  0.00  0.00    +0.003 C 
ATOM      9  C   UNL     1      31.056  -2.624  24.190  0.00  0.00    +0.012 C 
ATOM     10  C   UNL     1      32.030  -3.109  23.060  0.00  0.00    +0.024 C 
ATOM     11  C   UNL     1      32.546  -4.569  23.276  0.00  0.00    -0.014 C 
ATOM     12  C   UNL     1      33.236  -2.123  22.965  0.00  0.00    -0.011 C 
ATOM     13  C   UNL     1      33.979  -1.897  24.312  0.00  0.00    +0.010 C 
ATOM     14  C   UNL     1      33.002  -1.398  25.413  0.00  0.00    +0.030 C 
ATOM     15  C   UNL     1      33.690  -1.155  26.775  0.00  0.00    -0.048 A 
ENDROOT
BRANCH  10  16
ATOM     16  C   UNL     1      31.310  -3.141  21.719  0.00  0.00    +0.109 C 
ATOM     17  N   UNL     1      30.033  -2.971  21.601  0.00  0.00    -0.296 N 
ATOM     18  H   UNL     1      29.386  -2.803  22.387  0.00  0.00    +0.187 HD
ATOM     19  C   UNL     1      29.606  -3.039  20.221  0.00  0.00    +0.156 C 
ATOM     20  C   UNL     1      30.994  -3.295  19.554  0.00  0.00    +0.150 C 
ATOM     21  N   UNL     1      31.951  -3.333  20.642  0.00  0.00    -0.273 NA
ENDBRANCH  10  16
BRANCH   3  22
ATOM     22  O   UNL     1      35.862  -0.812  30.378  0.00  0.00    -0.339 OA
ATOM     23  H   UNL     1      35.465  -1.240  31.129  0.00  0.00    +0.246 HD
ENDBRANCH   3  22
BRANCH   9  24
ATOM     24  C   UNL     1      30.211  -1.382  23.753  0.00  0.00    +0.183 C 
BRANCH  24  25
ATOM     25  C   UNL     1      29.514  -0.759  24.871  0.00  0.00    +0.089 C 
ATOM     26  N   UNL     1      28.960  -0.263  25.758  0.00  0.00    -0.304 NA
ENDBRANCH  24  25
ENDBRANCH   9  24
TORSDOF 4
ENDMDL
MODEL 19
REMARK minimizedAffinity 11.0946627
REMARK minimizedRMSD -1
REMARK  Name = 301
REMARK  5 active torsions:
REMARK  status: ('A' for Active; 'I' for Inactive)
REMARK    1  A    between atoms: C_3  and  O_4
REMARK    2  A    between atoms: C_5  and  C_17
REMARK    3  A    between atoms: C_15  and  C_20
REMARK    4  A    between atoms: C_15  and  C_23
REMARK    5  A    between atoms: C_16  and  C_17
REMARK                            x       y       z     vdW  Elec       q    Type
REMARK                         _______ _______ _______ _____ _____    ______ ____
ROOT
ATOM      1  C   UNL     1      36.852  -0.295  18.833  0.00  0.00    -0.024 A 
ATOM      2  C   UNL     1      38.133  -0.040  19.327  0.00  0.00    +0.000 A 
ATOM      3  C   UNL     1      38.720  -0.912  20.245  0.00  0.00    +0.074 A 
ATOM      4  C   UNL     1      37.989  -2.018  20.691  0.00  0.00    +0.008 A 
ATOM      5  C   UNL     1      36.700  -2.268  20.203  0.00  0.00    -0.049 A 
ATOM      6  C   UNL     1      35.926  -3.440  20.817  0.00  0.00    +0.058 C 
ATOM      7  C   UNL     1      34.432  -3.413  20.415  0.00  0.00    +0.018 C 
ATOM      8  C   UNL     1      34.332  -3.233  18.879  0.00  0.00    +0.003 C 
ATOM      9  C   UNL     1      32.932  -3.587  18.273  0.00  0.00    +0.012 C 
ATOM     10  C   UNL     1      32.965  -3.460  16.710  0.00  0.00    +0.024 C 
ATOM     11  C   UNL     1      33.825  -4.568  16.019  0.00  0.00    -0.014 C 
ATOM     12  C   UNL     1      33.500  -2.046  16.321  0.00  0.00    -0.011 C 
ATOM     13  C   UNL     1      34.873  -1.690  16.960  0.00  0.00    +0.010 C 
ATOM     14  C   UNL     1      34.815  -1.802  18.509  0.00  0.00    +0.030 C 
ATOM     15  C   UNL     1      36.155  -1.456  19.197  0.00  0.00    -0.048 A 
ENDROOT
BRANCH  10  16
ATOM     16  C   UNL     1      31.566  -3.634  16.135  0.00  0.00    +0.109 C 
ATOM     17  N   UNL     1      31.070  -2.843  15.239  0.00  0.00    -0.296 N 
ATOM     18  H   UNL     1      31.560  -2.031  14.834  0.00  0.00    +0.187 HD
ATOM     19  C   UNL     1      29.731  -3.233  14.859  0.00  0.00    +0.156 C 
ATOM     20  C   UNL     1      29.575  -4.482  15.782  0.00  0.00    +0.150 C 
ATOM     21  N   UNL     1      30.820  -4.585  16.517  0.00  0.00    -0.273 NA
ENDBRANCH  10  16
BRANCH   3  22
ATOM     22  O   UNL     1      40.017  -0.656  20.700  0.00  0.00    -0.339 OA
ATOM     23  H   UNL     1      40.352  -1.302  21.311  0.00  0.00    +0.246 HD
ENDBRANCH   3  22
BRANCH   9  24
ATOM     24  C   UNL     1      31.747  -2.788  18.909  0.00  0.00    +0.183 C 
BRANCH  24  25
ATOM     25  C   UNL     1      30.957  -3.598  19.828  0.00  0.00    +0.089 C 
ATOM     26  N   UNL     1      30.329  -4.242  20.556  0.00  0.00    -0.304 NA
ENDBRANCH  24  25
ENDBRANCH   9  24
TORSDOF 4
ENDMDL
