MODEL 1
REMARK minimizedAffinity -8.38735676
REMARK minimizedRMSD -1
REMARK  Name = scaffold
REMARK  6 active torsions:
REMARK  status: ('A' for Active; 'I' for Inactive)
REMARK    1  A    between atoms: C_3  and  O_4
REMARK    2  A    between atoms: C_5  and  C_17
REMARK    3  A    between atoms: C_15  and  C_20
REMARK    4  A    between atoms: C_15  and  C_23
REMARK    5  A    between atoms: C_16  and  C_17
REMARK    6  A    between atoms: C_23  and  O_25
REMARK                            x       y       z     vdW  Elec       q    Type
REMARK                         _______ _______ _______ _____ _____    ______ ____
ROOT
ATOM      1  C   UNL     1      27.523  -1.861  28.025  0.00  0.00    -0.024 A 
ATOM      2  C   UNL     1      26.155  -1.691  27.796  0.00  0.00    +0.000 A 
ATOM      3  C   UNL     1      25.677  -0.502  27.244  0.00  0.00    +0.074 A 
ATOM      4  C   UNL     1      26.581   0.530  26.970  0.00  0.00    +0.008 A 
ATOM      5  C   UNL     1      27.951   0.358  27.207  0.00  0.00    -0.049 A 
ATOM      6  C   UNL     1      28.872   1.561  26.990  0.00  0.00    +0.058 C 
ATOM      7  C   UNL     1      30.292   1.327  27.565  0.00  0.00    +0.018 C 
ATOM      8  C   UNL     1      30.827  -0.042  27.061  0.00  0.00    +0.000 C 
ATOM      9  C   UNL     1      32.350  -0.290  27.340  0.00  0.00    -0.004 C 
ATOM     10  C   UNL     1      32.815  -1.700  26.824  0.00  0.00    +0.006 C 
ATOM     11  C   UNL     1      32.896  -1.772  25.266  0.00  0.00    -0.039 C 
ATOM     12  C   UNL     1      31.858  -2.807  27.360  0.00  0.00    -0.032 C 
ATOM     13  C   UNL     1      30.362  -2.520  27.069  0.00  0.00    +0.006 C 
ATOM     14  C   UNL     1      29.961  -1.164  27.710  0.00  0.00    +0.030 C 
ATOM     15  C   UNL     1      28.446  -0.881  27.638  0.00  0.00    -0.048 A 
ENDROOT
BRANCH   3  16
ATOM     16  O   UNL     1      24.310  -0.368  26.985  0.00  0.00    -0.339 OA
ATOM     17  H   UNL     1      24.069   0.452  26.568  0.00  0.00    +0.246 HD
ENDBRANCH   3  16
BRANCH   9  18
ATOM     18  C   UNL     1      32.516  -0.271  28.894  0.00  0.00    +0.179 C 
BRANCH  18  19
ATOM     19  C   UNL     1      33.348   0.816  29.399  0.00  0.00    +0.089 C 
ATOM     20  N   UNL     1      34.016   1.672  29.801  0.00  0.00    -0.304 NA
ENDBRANCH  18  19
ENDBRANCH   9  18
BRANCH  10  21
ATOM     21  C   UNL     1      34.163  -2.029  27.448  0.00  0.00    +0.114 C 
BRANCH  21  22
ATOM     22  O   UNL     1      35.323  -1.491  27.165  0.00  0.00    -0.246 OA
ATOM     23  H   UNL     1      35.996  -1.886  27.707  0.00  0.00    +0.000 HD
ENDBRANCH  21  22
ENDBRANCH  10  21
TORSDOF 5
ENDMDL
MODEL 2
REMARK minimizedAffinity -8.23771667
REMARK minimizedRMSD -1
REMARK  Name = scaffold
REMARK  6 active torsions:
REMARK  status: ('A' for Active; 'I' for Inactive)
REMARK    1  A    between atoms: C_3  and  O_4
REMARK    2  A    between atoms: C_5  and  C_17
REMARK    3  A    between atoms: C_15  and  C_20
REMARK    4  A    between atoms: C_15  and  C_23
REMARK    5  A    between atoms: C_16  and  C_17
REMARK    6  A    between atoms: C_23  and  O_25
REMARK                            x       y       z     vdW  Elec       q    Type
REMARK                         _______ _______ _______ _____ _____    ______ ____
ROOT
ATOM      1  C   UNL     1      28.121   0.509  26.575  0.00  0.00    -0.024 A 
ATOM      2  C   UNL     1      26.746   0.305  26.723  0.00  0.00    +0.000 A 
ATOM      3  C   UNL     1      26.272  -0.810  27.415  0.00  0.00    +0.074 A 
ATOM      4  C   UNL     1      27.190  -1.740  27.913  0.00  0.00    +0.008 A 
ATOM      5  C   UNL     1      28.567  -1.536  27.756  0.00  0.00    -0.049 A 
ATOM      6  C   UNL     1      29.513  -2.643  28.226  0.00  0.00    +0.058 C 
ATOM      7  C   UNL     1      30.966  -2.426  27.730  0.00  0.00    +0.018 C 
ATOM      8  C   UNL     1      31.402  -0.971  28.055  0.00  0.00    +0.000 C 
ATOM      9  C   UNL     1      32.932  -0.690  27.856  0.00  0.00    -0.004 C 
ATOM     10  C   UNL     1      33.298   0.804  28.181  0.00  0.00    +0.006 C 
ATOM     11  C   UNL     1      33.247   1.115  29.712  0.00  0.00    -0.039 C 
ATOM     12  C   UNL     1      32.345   1.767  27.410  0.00  0.00    -0.032 C 
ATOM     13  C   UNL     1      30.843   1.450  27.628  0.00  0.00    +0.006 C 
ATOM     14  C   UNL     1      30.550  -0.007  27.176  0.00  0.00    +0.030 C 
ATOM     15  C   UNL     1      29.046  -0.353  27.177  0.00  0.00    -0.048 A 
ENDROOT
BRANCH   3  16
ATOM     16  O   UNL     1      24.894  -0.973  27.588  0.00  0.00    -0.339 OA
ATOM     17  H   UNL     1      24.652  -1.732  28.108  0.00  0.00    +0.246 HD
ENDBRANCH   3  16
BRANCH   9  18
ATOM     18  C   UNL     1      33.227  -0.935  26.341  0.00  0.00    +0.179 C 
BRANCH  18  19
ATOM     19  C   UNL     1      33.494  -2.327  25.996  0.00  0.00    +0.089 C 
ATOM     20  N   UNL     1      33.713  -3.429  25.714  0.00  0.00    -0.304 NA
ENDBRANCH  18  19
ENDBRANCH   9  18
BRANCH  10  21
ATOM     21  C   UNL     1      34.679   1.104  27.618  0.00  0.00    +0.114 C 
BRANCH  21  22
ATOM     22  O   UNL     1      35.837   0.863  28.179  0.00  0.00    -0.246 OA
ATOM     23  H   UNL     1      36.534   1.153  27.604  0.00  0.00    +0.000 HD
ENDBRANCH  21  22
ENDBRANCH  10  21
TORSDOF 5
ENDMDL
MODEL 3
REMARK minimizedAffinity -7.15839195
REMARK minimizedRMSD -1
REMARK  Name = scaffold
REMARK  6 active torsions:
REMARK  status: ('A' for Active; 'I' for Inactive)
REMARK    1  A    between atoms: C_3  and  O_4
REMARK    2  A    between atoms: C_5  and  C_17
REMARK    3  A    between atoms: C_15  and  C_20
REMARK    4  A    between atoms: C_15  and  C_23
REMARK    5  A    between atoms: C_16  and  C_17
REMARK    6  A    between atoms: C_23  and  O_25
REMARK                            x       y       z     vdW  Elec       q    Type
REMARK                         _______ _______ _______ _____ _____    ______ ____
ROOT
ATOM      1  C   UNL     1      33.934  -0.512  29.030  0.00  0.00    -0.024 A 
ATOM      2  C   UNL     1      35.329  -0.564  28.961  0.00  0.00    +0.000 A 
ATOM      3  C   UNL     1      35.957  -1.117  27.844  0.00  0.00    +0.074 A 
ATOM      4  C   UNL     1      35.170  -1.659  26.823  0.00  0.00    +0.008 A 
ATOM      5  C   UNL     1      33.772  -1.612  26.899  0.00  0.00    -0.049 A 
ATOM      6  C   UNL     1      32.970  -2.320  25.804  0.00  0.00    +0.058 C 
ATOM      7  C   UNL     1      31.468  -2.446  26.163  0.00  0.00    +0.018 C 
ATOM      8  C   UNL     1      30.933  -1.059  26.613  0.00  0.00    +0.000 C 
ATOM      9  C   UNL     1      29.373  -0.974  26.746  0.00  0.00    -0.004 C 
ATOM     10  C   UNL     1      28.906   0.449  27.225  0.00  0.00    +0.006 C 
ATOM     11  C   UNL     1      29.057   1.536  26.113  0.00  0.00    -0.039 C 
ATOM     12  C   UNL     1      29.701   0.873  28.496  0.00  0.00    -0.032 C 
ATOM     13  C   UNL     1      31.238   0.768  28.324  0.00  0.00    +0.006 C 
ATOM     14  C   UNL     1      31.619  -0.694  27.963  0.00  0.00    +0.030 C 
ATOM     15  C   UNL     1      33.143  -0.941  27.957  0.00  0.00    -0.048 A 
ENDROOT
BRANCH   3  16
ATOM     16  O   UNL     1      37.353  -1.121  27.775  0.00  0.00    -0.339 OA
ATOM     17  H   UNL     1      37.704  -1.473  26.965  0.00  0.00    +0.246 HD
ENDBRANCH   3  16
BRANCH   9  18
ATOM     18  C   UNL     1      28.974  -2.004  27.852  0.00  0.00    +0.179 C 
BRANCH  18  19
ATOM     19  C   UNL     1      28.265  -3.178  27.356  0.00  0.00    +0.089 C 
ATOM     20  N   UNL     1      27.704  -4.107  26.952  0.00  0.00    -0.304 NA
ENDBRANCH  18  19
ENDBRANCH   9  18
BRANCH  10  21
ATOM     21  C   UNL     1      27.461   0.358  27.693  0.00  0.00    +0.114 C 
BRANCH  21  22
ATOM     22  O   UNL     1      26.387   0.273  26.948  0.00  0.00    -0.246 OA
ATOM     23  H   UNL     1      25.618   0.229  27.505  0.00  0.00    +0.000 HD
ENDBRANCH  21  22
ENDBRANCH  10  21
TORSDOF 5
ENDMDL
MODEL 4
REMARK minimizedAffinity -6.9292655
REMARK minimizedRMSD -1
REMARK  Name = scaffold
REMARK  6 active torsions:
REMARK  status: ('A' for Active; 'I' for Inactive)
REMARK    1  A    between atoms: C_3  and  O_4
REMARK    2  A    between atoms: C_5  and  C_17
REMARK    3  A    between atoms: C_15  and  C_20
REMARK    4  A    between atoms: C_15  and  C_23
REMARK    5  A    between atoms: C_16  and  C_17
REMARK    6  A    between atoms: C_23  and  O_25
REMARK                            x       y       z     vdW  Elec       q    Type
REMARK                         _______ _______ _______ _____ _____    ______ ____
ROOT
ATOM      1  C   UNL     1      31.779  -1.612  23.202  0.00  0.00    -0.024 A 
ATOM      2  C   UNL     1      32.079  -2.599  22.260  0.00  0.00    +0.000 A 
ATOM      3  C   UNL     1      32.566  -3.840  22.672  0.00  0.00    +0.074 A 
ATOM      4  C   UNL     1      32.793  -4.060  24.035  0.00  0.00    +0.008 A 
ATOM      5  C   UNL     1      32.498  -3.066  24.976  0.00  0.00    -0.049 A 
ATOM      6  C   UNL     1      32.873  -3.328  26.436  0.00  0.00    +0.058 C 
ATOM      7  C   UNL     1      32.769  -2.051  27.309  0.00  0.00    +0.018 C 
ATOM      8  C   UNL     1      31.389  -1.379  27.068  0.00  0.00    +0.000 C 
ATOM      9  C   UNL     1      31.036  -0.234  28.079  0.00  0.00    -0.004 C 
ATOM     10  C   UNL     1      29.639   0.413  27.761  0.00  0.00    +0.006 C 
ATOM     11  C   UNL     1      28.446  -0.528  28.122  0.00  0.00    -0.039 C 
ATOM     12  C   UNL     1      29.566   0.815  26.257  0.00  0.00    -0.032 C 
ATOM     13  C   UNL     1      29.929  -0.343  25.293  0.00  0.00    +0.006 C 
ATOM     14  C   UNL     1      31.365  -0.845  25.604  0.00  0.00    +0.030 C 
ATOM     15  C   UNL     1      31.888  -1.869  24.575  0.00  0.00    -0.048 A 
ENDROOT
BRANCH   3  16
ATOM     16  O   UNL     1      32.820  -4.828  21.716  0.00  0.00    -0.339 OA
ATOM     17  H   UNL     1      33.106  -5.659  22.079  0.00  0.00    +0.246 HD
ENDBRANCH   3  16
BRANCH   9  18
ATOM     18  C   UNL     1      32.128   0.868  27.886  0.00  0.00    +0.179 C 
BRANCH  18  19
ATOM     19  C   UNL     1      32.889   1.181  29.091  0.00  0.00    +0.089 C 
ATOM     20  N   UNL     1      33.492   1.438  30.045  0.00  0.00    -0.304 NA
ENDBRANCH  18  19
ENDBRANCH   9  18
BRANCH  10  21
ATOM     21  C   UNL     1      29.529   1.731  28.513  0.00  0.00    +0.114 C 
BRANCH  21  22
ATOM     22  O   UNL     1      28.538   2.587  28.479  0.00  0.00    -0.246 OA
ATOM     23  H   UNL     1      28.735   3.323  29.046  0.00  0.00    +0.000 HD
ENDBRANCH  21  22
ENDBRANCH  10  21
TORSDOF 5
ENDMDL
MODEL 5
REMARK minimizedAffinity -6.87414312
REMARK minimizedRMSD -1
REMARK  Name = scaffold
REMARK  6 active torsions:
REMARK  status: ('A' for Active; 'I' for Inactive)
REMARK    1  A    between atoms: C_3  and  O_4
REMARK    2  A    between atoms: C_5  and  C_17
REMARK    3  A    between atoms: C_15  and  C_20
REMARK    4  A    between atoms: C_15  and  C_23
REMARK    5  A    between atoms: C_16  and  C_17
REMARK    6  A    between atoms: C_23  and  O_25
REMARK                            x       y       z     vdW  Elec       q    Type
REMARK                         _______ _______ _______ _____ _____    ______ ____
ROOT
ATOM      1  C   UNL     1      32.165  -1.579  23.265  0.00  0.00    -0.024 A 
ATOM      2  C   UNL     1      32.056  -2.516  22.234  0.00  0.00    +0.000 A 
ATOM      3  C   UNL     1      32.257  -3.872  22.493  0.00  0.00    +0.074 A 
ATOM      4  C   UNL     1      32.617  -4.270  23.785  0.00  0.00    +0.008 A 
ATOM      5  C   UNL     1      32.732  -3.327  24.814  0.00  0.00    -0.049 A 
ATOM      6  C   UNL     1      33.234  -3.811  26.176  0.00  0.00    +0.058 C 
ATOM      7  C   UNL     1      33.596  -2.637  27.122  0.00  0.00    +0.018 C 
ATOM      8  C   UNL     1      32.419  -1.623  27.149  0.00  0.00    +0.000 C 
ATOM      9  C   UNL     1      32.529  -0.527  28.264  0.00  0.00    -0.004 C 
ATOM     10  C   UNL     1      31.318   0.475  28.218  0.00  0.00    +0.006 C 
ATOM     11  C   UNL     1      29.986  -0.170  28.720  0.00  0.00    -0.039 C 
ATOM     12  C   UNL     1      31.132   1.022  26.771  0.00  0.00    -0.032 C 
ATOM     13  C   UNL     1      31.036  -0.093  25.699  0.00  0.00    +0.006 C 
ATOM     14  C   UNL     1      32.321  -0.964  25.740  0.00  0.00    +0.030 C 
ATOM     15  C   UNL     1      32.402  -1.984  24.585  0.00  0.00    -0.048 A 
ENDROOT
BRANCH   3  16
ATOM     16  O   UNL     1      32.102  -4.798  21.456  0.00  0.00    -0.339 OA
ATOM     17  H   UNL     1      32.212  -5.704  21.722  0.00  0.00    +0.246 HD
ENDBRANCH   3  16
BRANCH   9  18
ATOM     18  C   UNL     1      33.829   0.282  27.953  0.00  0.00    +0.179 C 
BRANCH  18  19
ATOM     19  C   UNL     1      34.897   0.108  28.932  0.00  0.00    +0.089 C 
ATOM     20  N   UNL     1      35.749  -0.035  29.703  0.00  0.00    -0.304 NA
ENDBRANCH  18  19
ENDBRANCH   9  18
BRANCH  10  21
ATOM     21  C   UNL     1      31.666   1.702  29.047  0.00  0.00    +0.114 C 
BRANCH  21  22
ATOM     22  O   UNL     1      31.739   1.786  30.352  0.00  0.00    -0.246 OA
ATOM     23  H   UNL     1      31.976   2.672  30.599  0.00  0.00    +0.000 HD
ENDBRANCH  21  22
ENDBRANCH  10  21
TORSDOF 5
ENDMDL
MODEL 6
REMARK minimizedAffinity -6.4767189
REMARK minimizedRMSD -1
REMARK  Name = scaffold
REMARK  6 active torsions:
REMARK  status: ('A' for Active; 'I' for Inactive)
REMARK    1  A    between atoms: C_3  and  O_4
REMARK    2  A    between atoms: C_5  and  C_17
REMARK    3  A    between atoms: C_15  and  C_20
REMARK    4  A    between atoms: C_15  and  C_23
REMARK    5  A    between atoms: C_16  and  C_17
REMARK    6  A    between atoms: C_23  and  O_25
REMARK                            x       y       z     vdW  Elec       q    Type
REMARK                         _______ _______ _______ _____ _____    ______ ____
ROOT
ATOM      1  C   UNL     1      32.333   1.302  30.048  0.00  0.00    -0.024 A 
ATOM      2  C   UNL     1      33.645   1.696  30.329  0.00  0.00    +0.000 A 
ATOM      3  C   UNL     1      34.693   1.290  29.501  0.00  0.00    +0.074 A 
ATOM      4  C   UNL     1      34.415   0.447  28.420  0.00  0.00    +0.008 A 
ATOM      5  C   UNL     1      33.101   0.049  28.146  0.00  0.00    -0.049 A 
ATOM      6  C   UNL     1      32.879  -0.960  27.017  0.00  0.00    +0.058 C 
ATOM      7  C   UNL     1      31.439  -1.535  27.016  0.00  0.00    +0.018 C 
ATOM      8  C   UNL     1      30.423  -0.363  27.094  0.00  0.00    +0.000 C 
ATOM      9  C   UNL     1      28.933  -0.773  26.830  0.00  0.00    -0.004 C 
ATOM     10  C   UNL     1      27.960   0.456  26.947  0.00  0.00    +0.006 C 
ATOM     11  C   UNL     1      28.097   1.446  25.746  0.00  0.00    -0.039 C 
ATOM     12  C   UNL     1      28.209   1.209  28.288  0.00  0.00    -0.032 C 
ATOM     13  C   UNL     1      29.694   1.590  28.513  0.00  0.00    +0.006 C 
ATOM     14  C   UNL     1      30.567   0.305  28.495  0.00  0.00    +0.030 C 
ATOM     15  C   UNL     1      32.034   0.561  28.898  0.00  0.00    -0.048 A 
ENDROOT
BRANCH   3  16
ATOM     16  O   UNL     1      35.991   1.730  29.776  0.00  0.00    -0.339 OA
ATOM     17  H   UNL     1      36.642   1.448  29.142  0.00  0.00    +0.246 HD
ENDBRANCH   3  16
BRANCH   9  18
ATOM     18  C   UNL     1      28.555  -1.789  27.956  0.00  0.00    +0.179 C 
BRANCH  18  19
ATOM     19  C   UNL     1      28.261  -3.136  27.479  0.00  0.00    +0.089 C 
ATOM     20  N   UNL     1      28.037  -4.209  27.104  0.00  0.00    -0.304 NA
ENDBRANCH  18  19
ENDBRANCH   9  18
BRANCH  10  21
ATOM     21  C   UNL     1      26.532  -0.058  27.058  0.00  0.00    +0.114 C 
BRANCH  21  22
ATOM     22  O   UNL     1      25.731  -0.402  26.081  0.00  0.00    -0.246 OA
ATOM     23  H   UNL     1      24.899  -0.686  26.439  0.00  0.00    +0.000 HD
ENDBRANCH  21  22
ENDBRANCH  10  21
TORSDOF 5
ENDMDL
MODEL 7
REMARK minimizedAffinity -6.38638496
REMARK minimizedRMSD -1
REMARK  Name = scaffold
REMARK  6 active torsions:
REMARK  status: ('A' for Active; 'I' for Inactive)
REMARK    1  A    between atoms: C_3  and  O_4
REMARK    2  A    between atoms: C_5  and  C_17
REMARK    3  A    between atoms: C_15  and  C_20
REMARK    4  A    between atoms: C_15  and  C_23
REMARK    5  A    between atoms: C_16  and  C_17
REMARK    6  A    between atoms: C_23  and  O_25
REMARK                            x       y       z     vdW  Elec       q    Type
REMARK                         _______ _______ _______ _____ _____    ______ ____
ROOT
ATOM      1  C   UNL     1      33.857  -0.990  26.434  0.00  0.00    -0.024 A 
ATOM      2  C   UNL     1      35.202  -1.177  26.763  0.00  0.00    +0.000 A 
ATOM      3  C   UNL     1      35.625  -1.053  28.087  0.00  0.00    +0.074 A 
ATOM      4  C   UNL     1      34.694  -0.693  29.066  0.00  0.00    +0.008 A 
ATOM      5  C   UNL     1      33.347  -0.500  28.731  0.00  0.00    -0.049 A 
ATOM      6  C   UNL     1      32.401  -0.001  29.826  0.00  0.00    +0.058 C 
ATOM      7  C   UNL     1      31.031   0.450  29.259  0.00  0.00    +0.018 C 
ATOM      8  C   UNL     1      30.473  -0.662  28.329  0.00  0.00    +0.000 C 
ATOM      9  C   UNL     1      28.978  -0.463  27.900  0.00  0.00    -0.004 C 
ATOM     10  C   UNL     1      28.488  -1.612  26.944  0.00  0.00    +0.006 C 
ATOM     11  C   UNL     1      28.290  -2.970  27.691  0.00  0.00    -0.039 C 
ATOM     12  C   UNL     1      29.494  -1.792  25.768  0.00  0.00    -0.032 C 
ATOM     13  C   UNL     1      30.960  -1.978  26.235  0.00  0.00    +0.006 C 
ATOM     14  C   UNL     1      31.396  -0.748  27.076  0.00  0.00    +0.030 C 
ATOM     15  C   UNL     1      32.898  -0.752  27.428  0.00  0.00    -0.048 A 
ENDROOT
BRANCH   3  16
ATOM     16  O   UNL     1      36.968  -1.285  28.402  0.00  0.00    -0.339 OA
ATOM     17  H   UNL     1      37.169  -1.226  29.329  0.00  0.00    +0.246 HD
ENDBRANCH   3  16
BRANCH   9  18
ATOM     18  C   UNL     1      28.929   0.878  27.099  0.00  0.00    +0.179 C 
BRANCH  18  19
ATOM     19  C   UNL     1      28.428   2.017  27.860  0.00  0.00    +0.089 C 
ATOM     20  N   UNL     1      28.038   2.922  28.469  0.00  0.00    -0.304 NA
ENDBRANCH  18  19
ENDBRANCH   9  18
BRANCH  10  21
ATOM     21  C   UNL     1      27.194  -1.173  26.275  0.00  0.00    +0.114 C 
BRANCH  21  22
ATOM     22  O   UNL     1      26.058  -0.879  26.856  0.00  0.00    -0.246 OA
ATOM     23  H   UNL     1      25.419  -0.637  26.196  0.00  0.00    +0.000 HD
ENDBRANCH  21  22
ENDBRANCH  10  21
TORSDOF 5
ENDMDL
MODEL 8
REMARK minimizedAffinity -6.24159622
REMARK minimizedRMSD -1
REMARK  Name = scaffold
REMARK  6 active torsions:
REMARK  status: ('A' for Active; 'I' for Inactive)
REMARK    1  A    between atoms: C_3  and  O_4
REMARK    2  A    between atoms: C_5  and  C_17
REMARK    3  A    between atoms: C_15  and  C_20
REMARK    4  A    between atoms: C_15  and  C_23
REMARK    5  A    between atoms: C_16  and  C_17
REMARK    6  A    between atoms: C_23  and  O_25
REMARK                            x       y       z     vdW  Elec       q    Type
REMARK                         _______ _______ _______ _____ _____    ______ ____
ROOT
ATOM      1  C   UNL     1      32.690  -3.879  24.712  0.00  0.00    -0.024 A 
ATOM      2  C   UNL     1      32.586  -4.576  23.506  0.00  0.00    +0.000 A 
ATOM      3  C   UNL     1      32.294  -3.895  22.323  0.00  0.00    +0.074 A 
ATOM      4  C   UNL     1      32.061  -2.517  22.375  0.00  0.00    +0.008 A 
ATOM      5  C   UNL     1      32.160  -1.822  23.587  0.00  0.00    -0.049 A 
ATOM      6  C   UNL     1      31.787  -0.338  23.595  0.00  0.00    +0.058 C 
ATOM      7  C   UNL     1      31.653   0.228  25.032  0.00  0.00    +0.018 C 
ATOM      8  C   UNL     1      32.913  -0.164  25.853  0.00  0.00    +0.000 C 
ATOM      9  C   UNL     1      33.042   0.565  27.235  0.00  0.00    -0.004 C 
ATOM     10  C   UNL     1      34.325   0.104  28.018  0.00  0.00    +0.006 C 
ATOM     11  C   UNL     1      35.643   0.660  27.390  0.00  0.00    -0.039 C 
ATOM     12  C   UNL     1      34.381  -1.452  28.085  0.00  0.00    -0.032 C 
ATOM     13  C   UNL     1      34.242  -2.132  26.699  0.00  0.00    +0.006 C 
ATOM     14  C   UNL     1      32.897  -1.710  26.047  0.00  0.00    +0.030 C 
ATOM     15  C   UNL     1      32.581  -2.483  24.749  0.00  0.00    -0.048 A 
ENDROOT
BRANCH   3  16
ATOM     16  O   UNL     1      32.235  -4.605  21.120  0.00  0.00    -0.339 OA
ATOM     17  H   UNL     1      32.075  -4.065  20.354  0.00  0.00    +0.246 HD
ENDBRANCH   3  16
BRANCH   9  18
ATOM     18  C   UNL     1      31.793   0.137  28.071  0.00  0.00    +0.179 C 
BRANCH  18  19
ATOM     19  C   UNL     1      30.857   1.219  28.354  0.00  0.00    +0.089 C 
ATOM     20  N   UNL     1      30.109   2.077  28.570  0.00  0.00    -0.304 NA
ENDBRANCH  18  19
ENDBRANCH   9  18
BRANCH  10  21
ATOM     21  C   UNL     1      34.196   0.543  29.469  0.00  0.00    +0.114 C 
BRANCH  21  22
ATOM     22  O   UNL     1      34.235   1.765  29.938  0.00  0.00    -0.246 OA
ATOM     23  H   UNL     1      34.129   1.745  30.882  0.00  0.00    +0.000 HD
ENDBRANCH  21  22
ENDBRANCH  10  21
TORSDOF 5
ENDMDL
MODEL 9
REMARK minimizedAffinity -6.19586134
REMARK minimizedRMSD -1
REMARK  Name = scaffold
REMARK  6 active torsions:
REMARK  status: ('A' for Active; 'I' for Inactive)
REMARK    1  A    between atoms: C_3  and  O_4
REMARK    2  A    between atoms: C_5  and  C_17
REMARK    3  A    between atoms: C_15  and  C_20
REMARK    4  A    between atoms: C_15  and  C_23
REMARK    5  A    between atoms: C_16  and  C_17
REMARK    6  A    between atoms: C_23  and  O_25
REMARK                            x       y       z     vdW  Elec       q    Type
REMARK                         _______ _______ _______ _____ _____    ______ ____
ROOT
ATOM      1  C   UNL     1      33.772   0.244  29.316  0.00  0.00    -0.024 A 
ATOM      2  C   UNL     1      34.627   1.323  29.554  0.00  0.00    +0.000 A 
ATOM      3  C   UNL     1      34.981   2.184  28.514  0.00  0.00    +0.074 A 
ATOM      4  C   UNL     1      34.505   1.920  27.225  0.00  0.00    +0.008 A 
ATOM      5  C   UNL     1      33.653   0.834  26.989  0.00  0.00    -0.049 A 
ATOM      6  C   UNL     1      33.256   0.537  25.541  0.00  0.00    +0.058 C 
ATOM      7  C   UNL     1      32.568  -0.844  25.390  0.00  0.00    +0.018 C 
ATOM      8  C   UNL     1      31.436  -0.967  26.447  0.00  0.00    +0.000 C 
ATOM      9  C   UNL     1      30.481  -2.193  26.239  0.00  0.00    -0.004 C 
ATOM     10  C   UNL     1      29.376  -2.267  27.355  0.00  0.00    +0.006 C 
ATOM     11  C   UNL     1      28.290  -1.155  27.199  0.00  0.00    -0.039 C 
ATOM     12  C   UNL     1      30.034  -2.174  28.765  0.00  0.00    -0.032 C 
ATOM     13  C   UNL     1      30.975  -0.953  28.926  0.00  0.00    +0.006 C 
ATOM     14  C   UNL     1      32.099  -1.021  27.856  0.00  0.00    +0.030 C 
ATOM     15  C   UNL     1      33.194   0.049  28.055  0.00  0.00    -0.048 A 
ENDROOT
BRANCH   3  16
ATOM     16  O   UNL     1      35.804   3.281  28.782  0.00  0.00    -0.339 OA
ATOM     17  H   UNL     1      35.963   3.844  28.033  0.00  0.00    +0.246 HD
ENDBRANCH   3  16
BRANCH   9  18
ATOM     18  C   UNL     1      31.375  -3.468  26.368  0.00  0.00    +0.179 C 
BRANCH  18  19
ATOM     19  C   UNL     1      32.056  -3.855  25.137  0.00  0.00    +0.089 C 
ATOM     20  N   UNL     1      32.604  -4.163  24.165  0.00  0.00    -0.304 NA
ENDBRANCH  18  19
ENDBRANCH   9  18
BRANCH  10  21
ATOM     21  C   UNL     1      28.739  -3.648  27.323  0.00  0.00    +0.114 C 
BRANCH  21  22
ATOM     22  O   UNL     1      27.624  -3.996  26.731  0.00  0.00    -0.246 OA
ATOM     23  H   UNL     1      27.466  -4.922  26.874  0.00  0.00    +0.000 HD
ENDBRANCH  21  22
ENDBRANCH  10  21
TORSDOF 5
ENDMDL
MODEL 10
REMARK minimizedAffinity -5.97718096
REMARK minimizedRMSD -1
REMARK  Name = scaffold
REMARK  6 active torsions:
REMARK  status: ('A' for Active; 'I' for Inactive)
REMARK    1  A    between atoms: C_3  and  O_4
REMARK    2  A    between atoms: C_5  and  C_17
REMARK    3  A    between atoms: C_15  and  C_20
REMARK    4  A    between atoms: C_15  and  C_23
REMARK    5  A    between atoms: C_16  and  C_17
REMARK    6  A    between atoms: C_23  and  O_25
REMARK                            x       y       z     vdW  Elec       q    Type
REMARK                         _______ _______ _______ _____ _____    ______ ____
ROOT
ATOM      1  C   UNL     1      28.584   0.819  27.776  0.00  0.00    -0.024 A 
ATOM      2  C   UNL     1      27.229   0.673  27.469  0.00  0.00    +0.000 A 
ATOM      3  C   UNL     1      26.819  -0.272  26.528  0.00  0.00    +0.074 A 
ATOM      4  C   UNL     1      27.787  -1.033  25.865  0.00  0.00    +0.008 A 
ATOM      5  C   UNL     1      29.145  -0.880  26.170  0.00  0.00    -0.049 A 
ATOM      6  C   UNL     1      30.161  -1.662  25.334  0.00  0.00    +0.058 C 
ATOM      7  C   UNL     1      31.615  -1.181  25.572  0.00  0.00    +0.018 C 
ATOM      8  C   UNL     1      31.889  -1.123  27.099  0.00  0.00    +0.000 C 
ATOM      9  C   UNL     1      33.395  -0.915  27.484  0.00  0.00    -0.004 C 
ATOM     10  C   UNL     1      33.594  -0.844  29.042  0.00  0.00    +0.006 C 
ATOM     11  C   UNL     1      33.415  -2.234  29.733  0.00  0.00    -0.039 C 
ATOM     12  C   UNL     1      32.606   0.190  29.660  0.00  0.00    -0.032 C 
ATOM     13  C   UNL     1      31.130  -0.048  29.250  0.00  0.00    +0.006 C 
ATOM     14  C   UNL     1      31.007   0.011  27.703  0.00  0.00    +0.030 C 
ATOM     15  C   UNL     1      29.547  -0.026  27.207  0.00  0.00    -0.048 A 
ENDROOT
BRANCH   3  16
ATOM     16  O   UNL     1      25.454  -0.431  26.266  0.00  0.00    -0.339 OA
ATOM     17  H   UNL     1      25.253  -1.124  25.647  0.00  0.00    +0.246 HD
ENDBRANCH   3  16
BRANCH   9  18
ATOM     18  C   UNL     1      33.809   0.468  26.886  0.00  0.00    +0.179 C 
BRANCH  18  19
ATOM     19  C   UNL     1      35.250   0.682  26.801  0.00  0.00    +0.089 C 
ATOM     20  N   UNL     1      36.392   0.860  26.735  0.00  0.00    -0.304 NA
ENDBRANCH  18  19
ENDBRANCH   9  18
BRANCH  10  21
ATOM     21  C   UNL     1      34.974  -0.274  29.333  0.00  0.00    +0.114 C 
BRANCH  21  22
ATOM     22  O   UNL     1      36.088  -0.938  29.514  0.00  0.00    -0.246 OA
ATOM     23  H   UNL     1      36.797  -0.327  29.679  0.00  0.00    +0.000 HD
ENDBRANCH  21  22
ENDBRANCH  10  21
TORSDOF 5
ENDMDL
MODEL 11
REMARK minimizedAffinity -5.92779779
REMARK minimizedRMSD -1
REMARK  Name = scaffold
REMARK  6 active torsions:
REMARK  status: ('A' for Active; 'I' for Inactive)
REMARK    1  A    between atoms: C_3  and  O_4
REMARK    2  A    between atoms: C_5  and  C_17
REMARK    3  A    between atoms: C_15  and  C_20
REMARK    4  A    between atoms: C_15  and  C_23
REMARK    5  A    between atoms: C_16  and  C_17
REMARK    6  A    between atoms: C_23  and  O_25
REMARK                            x       y       z     vdW  Elec       q    Type
REMARK                         _______ _______ _______ _____ _____    ______ ____
ROOT
ATOM      1  C   UNL     1      33.274   0.993  26.402  0.00  0.00    -0.024 A 
ATOM      2  C   UNL     1      34.498   1.592  26.714  0.00  0.00    +0.000 A 
ATOM      3  C   UNL     1      34.722   2.110  27.990  0.00  0.00    +0.074 A 
ATOM      4  C   UNL     1      33.689   2.063  28.932  0.00  0.00    +0.008 A 
ATOM      5  C   UNL     1      32.461   1.469  28.613  0.00  0.00    -0.049 A 
ATOM      6  C   UNL     1      31.337   1.548  29.649  0.00  0.00    +0.058 C 
ATOM      7  C   UNL     1      29.966   1.124  29.063  0.00  0.00    +0.018 C 
ATOM      8  C   UNL     1      30.124  -0.236  28.329  0.00  0.00    +0.000 C 
ATOM      9  C   UNL     1      28.772  -0.918  27.922  0.00  0.00    -0.004 C 
ATOM     10  C   UNL     1      29.009  -2.276  27.166  0.00  0.00    +0.006 C 
ATOM     11  C   UNL     1      29.512  -3.411  28.115  0.00  0.00    -0.039 C 
ATOM     12  C   UNL     1      30.022  -2.069  26.000  0.00  0.00    -0.032 C 
ATOM     13  C   UNL     1      31.340  -1.387  26.444  0.00  0.00    +0.006 C 
ATOM     14  C   UNL     1      31.021  -0.004  27.076  0.00  0.00    +0.030 C 
ATOM     15  C   UNL     1      32.281   0.833  27.377  0.00  0.00    -0.048 A 
ENDROOT
BRANCH   3  16
ATOM     16  O   UNL     1      35.968   2.667  28.294  0.00  0.00    -0.339 OA
ATOM     17  H   UNL     1      36.058   2.957  29.195  0.00  0.00    +0.246 HD
ENDBRANCH   3  16
BRANCH   9  18
ATOM     18  C   UNL     1      28.071   0.064  26.929  0.00  0.00    +0.179 C 
BRANCH  18  19
ATOM     19  C   UNL     1      26.617  -0.042  26.901  0.00  0.00    +0.089 C 
ATOM     20  N   UNL     1      25.462  -0.128  26.869  0.00  0.00    -0.304 NA
ENDBRANCH  18  19
ENDBRANCH   9  18
BRANCH  10  21
ATOM     21  C   UNL     1      27.715  -2.686  26.479  0.00  0.00    +0.114 C 
BRANCH  21  22
ATOM     22  O   UNL     1      27.136  -3.860  26.507  0.00  0.00    -0.246 OA
ATOM     23  H   UNL     1      26.340  -3.832  25.990  0.00  0.00    +0.000 HD
ENDBRANCH  21  22
ENDBRANCH  10  21
TORSDOF 5
ENDMDL
MODEL 12
REMARK minimizedAffinity -5.68457317
REMARK minimizedRMSD -1
REMARK  Name = scaffold
REMARK  6 active torsions:
REMARK  status: ('A' for Active; 'I' for Inactive)
REMARK    1  A    between atoms: C_3  and  O_4
REMARK    2  A    between atoms: C_5  and  C_17
REMARK    3  A    between atoms: C_15  and  C_20
REMARK    4  A    between atoms: C_15  and  C_23
REMARK    5  A    between atoms: C_16  and  C_17
REMARK    6  A    between atoms: C_23  and  O_25
REMARK                            x       y       z     vdW  Elec       q    Type
REMARK                         _______ _______ _______ _____ _____    ______ ____
ROOT
ATOM      1  C   UNL     1      32.681  -1.042  25.915  0.00  0.00    -0.024 A 
ATOM      2  C   UNL     1      34.040  -1.338  26.049  0.00  0.00    +0.000 A 
ATOM      3  C   UNL     1      34.658  -1.256  27.298  0.00  0.00    +0.074 A 
ATOM      4  C   UNL     1      33.908  -0.826  28.398  0.00  0.00    +0.008 A 
ATOM      5  C   UNL     1      32.548  -0.523  28.258  0.00  0.00    -0.049 A 
ATOM      6  C   UNL     1      31.812   0.046  29.474  0.00  0.00    +0.058 C 
ATOM      7  C   UNL     1      30.416   0.609  29.107  0.00  0.00    +0.018 C 
ATOM      8  C   UNL     1      29.642  -0.450  28.274  0.00  0.00    +0.000 C 
ATOM      9  C   UNL     1      28.122  -0.129  28.063  0.00  0.00    -0.004 C 
ATOM     10  C   UNL     1      27.409  -1.229  27.196  0.00  0.00    +0.006 C 
ATOM     11  C   UNL     1      27.211  -2.570  27.972  0.00  0.00    -0.039 C 
ATOM     12  C   UNL     1      28.217  -1.485  25.888  0.00  0.00    -0.032 C 
ATOM     13  C   UNL     1      29.715  -1.791  26.141  0.00  0.00    +0.006 C 
ATOM     14  C   UNL     1      30.365  -0.604  26.903  0.00  0.00    +0.030 C 
ATOM     15  C   UNL     1      31.898  -0.731  27.034  0.00  0.00    -0.048 A 
ENDROOT
BRANCH   3  16
ATOM     16  O   UNL     1      36.008  -1.597  27.417  0.00  0.00    -0.339 OA
ATOM     17  H   UNL     1      36.344  -1.558  28.306  0.00  0.00    +0.246 HD
ENDBRANCH   3  16
BRANCH   9  18
ATOM     18  C   UNL     1      28.067   1.215  27.268  0.00  0.00    +0.179 C 
BRANCH  18  19
ATOM     19  C   UNL     1      28.184   2.411  28.095  0.00  0.00    +0.089 C 
ATOM     20  N   UNL     1      28.274   3.356  28.760  0.00  0.00    -0.304 NA
ENDBRANCH  18  19
ENDBRANCH   9  18
BRANCH  10  21
ATOM     21  C   UNL     1      26.072  -0.684  26.716  0.00  0.00    +0.114 C 
BRANCH  21  22
ATOM     22  O   UNL     1      24.893  -0.888  27.247  0.00  0.00    -0.246 OA
ATOM     23  H   UNL     1      24.234  -0.427  26.742  0.00  0.00    +0.000 HD
ENDBRANCH  21  22
ENDBRANCH  10  21
TORSDOF 5
ENDMDL
MODEL 13
REMARK minimizedAffinity -5.30017328
REMARK minimizedRMSD -1
REMARK  Name = scaffold
REMARK  6 active torsions:
REMARK  status: ('A' for Active; 'I' for Inactive)
REMARK    1  A    between atoms: C_3  and  O_4
REMARK    2  A    between atoms: C_5  and  C_17
REMARK    3  A    between atoms: C_15  and  C_20
REMARK    4  A    between atoms: C_15  and  C_23
REMARK    5  A    between atoms: C_16  and  C_17
REMARK    6  A    between atoms: C_23  and  O_25
REMARK                            x       y       z     vdW  Elec       q    Type
REMARK                         _______ _______ _______ _____ _____    ______ ____
ROOT
ATOM      1  C   UNL     1      32.780  -3.885  26.017  0.00  0.00    -0.024 A 
ATOM      2  C   UNL     1      32.436  -3.655  27.352  0.00  0.00    +0.000 A 
ATOM      3  C   UNL     1      31.871  -2.437  27.732  0.00  0.00    +0.074 A 
ATOM      4  C   UNL     1      31.702  -1.438  26.768  0.00  0.00    +0.008 A 
ATOM      5  C   UNL     1      32.055  -1.670  25.432  0.00  0.00    -0.049 A 
ATOM      6  C   UNL     1      31.948  -0.501  24.450  0.00  0.00    +0.058 C 
ATOM      7  C   UNL     1      32.641  -0.804  23.097  0.00  0.00    +0.018 C 
ATOM      8  C   UNL     1      32.155  -2.184  22.573  0.00  0.00    +0.000 C 
ATOM      9  C   UNL     1      32.562  -2.498  21.092  0.00  0.00    -0.004 C 
ATOM     10  C   UNL     1      32.057  -3.916  20.638  0.00  0.00    +0.006 C 
ATOM     11  C   UNL     1      30.511  -3.961  20.420  0.00  0.00    -0.039 C 
ATOM     12  C   UNL     1      32.480  -4.994  21.681  0.00  0.00    -0.032 C 
ATOM     13  C   UNL     1      32.065  -4.640  23.132  0.00  0.00    +0.006 C 
ATOM     14  C   UNL     1      32.699  -3.281  23.536  0.00  0.00    +0.030 C 
ATOM     15  C   UNL     1      32.499  -2.936  25.027  0.00  0.00    -0.048 A 
ENDROOT
BRANCH   3  16
ATOM     16  O   UNL     1      31.494  -2.243  29.065  0.00  0.00    -0.339 OA
ATOM     17  H   UNL     1      31.077  -1.406  29.235  0.00  0.00    +0.246 HD
ENDBRANCH   3  16
BRANCH   9  18
ATOM     18  C   UNL     1      34.125  -2.517  21.065  0.00  0.00    +0.179 C 
BRANCH  18  19
ATOM     19  C   UNL     1      34.716  -1.820  19.928  0.00  0.00    +0.089 C 
ATOM     20  N   UNL     1      35.183  -1.273  19.019  0.00  0.00    -0.304 NA
ENDBRANCH  18  19
ENDBRANCH   9  18
BRANCH  10  21
ATOM     21  C   UNL     1      32.790  -4.311  19.364  0.00  0.00    +0.114 C 
BRANCH  21  22
ATOM     22  O   UNL     1      32.540  -3.907  18.144  0.00  0.00    -0.246 OA
ATOM     23  H   UNL     1      33.154  -4.315  17.544  0.00  0.00    +0.000 HD
ENDBRANCH  21  22
ENDBRANCH  10  21
TORSDOF 5
ENDMDL
MODEL 14
REMARK minimizedAffinity -4.41707087
REMARK minimizedRMSD -1
REMARK  Name = scaffold
REMARK  6 active torsions:
REMARK  status: ('A' for Active; 'I' for Inactive)
REMARK    1  A    between atoms: C_3  and  O_4
REMARK    2  A    between atoms: C_5  and  C_17
REMARK    3  A    between atoms: C_15  and  C_20
REMARK    4  A    between atoms: C_15  and  C_23
REMARK    5  A    between atoms: C_16  and  C_17
REMARK    6  A    between atoms: C_23  and  O_25
REMARK                            x       y       z     vdW  Elec       q    Type
REMARK                         _______ _______ _______ _____ _____    ______ ____
ROOT
ATOM      1  C   UNL     1      33.808   1.793  27.333  0.00  0.00    -0.024 A 
ATOM      2  C   UNL     1      34.703   2.291  28.284  0.00  0.00    +0.000 A 
ATOM      3  C   UNL     1      34.977   1.562  29.442  0.00  0.00    +0.074 A 
ATOM      4  C   UNL     1      34.306   0.353  29.656  0.00  0.00    +0.008 A 
ATOM      5  C   UNL     1      33.404  -0.139  28.704  0.00  0.00    -0.049 A 
ATOM      6  C   UNL     1      32.622  -1.409  29.048  0.00  0.00    +0.058 C 
ATOM      7  C   UNL     1      31.462  -1.673  28.055  0.00  0.00    +0.018 C 
ATOM      8  C   UNL     1      32.003  -1.577  26.602  0.00  0.00    +0.000 C 
ATOM      9  C   UNL     1      31.008  -2.084  25.501  0.00  0.00    -0.004 C 
ATOM     10  C   UNL     1      31.612  -1.937  24.057  0.00  0.00    +0.006 C 
ATOM     11  C   UNL     1      32.748  -2.971  23.774  0.00  0.00    -0.039 C 
ATOM     12  C   UNL     1      32.145  -0.488  23.847  0.00  0.00    -0.032 C 
ATOM     13  C   UNL     1      33.119  -0.023  24.960  0.00  0.00    +0.006 C 
ATOM     14  C   UNL     1      32.404  -0.095  26.337  0.00  0.00    +0.030 C 
ATOM     15  C   UNL     1      33.228   0.527  27.484  0.00  0.00    -0.048 A 
ENDROOT
BRANCH   3  16
ATOM     16  O   UNL     1      35.907   2.058  30.360  0.00  0.00    -0.339 OA
ATOM     17  H   UNL     1      36.072   1.484  31.100  0.00  0.00    +0.246 HD
ENDBRANCH   3  16
BRANCH   9  18
ATOM     18  C   UNL     1      29.752  -1.159  25.590  0.00  0.00    +0.179 C 
BRANCH  18  19
ATOM     19  C   UNL     1      28.628  -1.736  26.319  0.00  0.00    +0.089 C 
ATOM     20  N   UNL     1      27.732  -2.186  26.899  0.00  0.00    -0.304 NA
ENDBRANCH  18  19
ENDBRANCH   9  18
BRANCH  10  21
ATOM     21  C   UNL     1      30.490  -2.081  23.040  0.00  0.00    +0.114 C 
BRANCH  21  22
ATOM     22  O   UNL     1      30.574  -2.556  21.823  0.00  0.00    -0.246 OA
ATOM     23  H   UNL     1      29.718  -2.528  21.413  0.00  0.00    +0.000 HD
ENDBRANCH  21  22
ENDBRANCH  10  21
TORSDOF 5
ENDMDL
MODEL 15
REMARK minimizedAffinity -4.14041138
REMARK minimizedRMSD -1
REMARK  Name = scaffold
REMARK  6 active torsions:
REMARK  status: ('A' for Active; 'I' for Inactive)
REMARK    1  A    between atoms: C_3  and  O_4
REMARK    2  A    between atoms: C_5  and  C_17
REMARK    3  A    between atoms: C_15  and  C_20
REMARK    4  A    between atoms: C_15  and  C_23
REMARK    5  A    between atoms: C_16  and  C_17
REMARK    6  A    between atoms: C_23  and  O_25
REMARK                            x       y       z     vdW  Elec       q    Type
REMARK                         _______ _______ _______ _____ _____    ______ ____
ROOT
ATOM      1  C   UNL     1      32.682  -1.671  22.925  0.00  0.00    -0.024 A 
ATOM      2  C   UNL     1      32.386  -2.026  24.244  0.00  0.00    +0.000 A 
ATOM      3  C   UNL     1      32.283  -3.370  24.605  0.00  0.00    +0.074 A 
ATOM      4  C   UNL     1      32.432  -4.350  23.617  0.00  0.00    +0.008 A 
ATOM      5  C   UNL     1      32.722  -3.990  22.295  0.00  0.00    -0.049 A 
ATOM      6  C   UNL     1      32.764  -5.101  21.243  0.00  0.00    +0.058 C 
ATOM      7  C   UNL     1      32.797  -4.543  19.798  0.00  0.00    +0.018 C 
ATOM      8  C   UNL     1      33.907  -3.462  19.694  0.00  0.00    +0.000 C 
ATOM      9  C   UNL     1      34.236  -3.004  18.231  0.00  0.00    -0.004 C 
ATOM     10  C   UNL     1      35.351  -1.896  18.204  0.00  0.00    +0.006 C 
ATOM     11  C   UNL     1      36.767  -2.460  18.546  0.00  0.00    -0.039 C 
ATOM     12  C   UNL     1      34.984  -0.745  19.188  0.00  0.00    -0.032 C 
ATOM     13  C   UNL     1      34.659  -1.241  20.620  0.00  0.00    +0.006 C 
ATOM     14  C   UNL     1      33.475  -2.244  20.565  0.00  0.00    +0.030 C 
ATOM     15  C   UNL     1      32.955  -2.649  21.960  0.00  0.00    -0.048 A 
ENDROOT
BRANCH   3  16
ATOM     16  O   UNL     1      32.028  -3.704  25.938  0.00  0.00    -0.339 OA
ATOM     17  H   UNL     1      32.017  -4.639  26.112  0.00  0.00    +0.246 HD
ENDBRANCH   3  16
BRANCH   9  18
ATOM     18  C   UNL     1      32.923  -2.373  17.666  0.00  0.00    +0.179 C 
BRANCH  18  19
ATOM     19  C   UNL     1      31.997  -3.334  17.076  0.00  0.00    +0.089 C 
ATOM     20  N   UNL     1      31.263  -4.102  16.615  0.00  0.00    -0.304 NA
ENDBRANCH  18  19
ENDBRANCH   9  18
BRANCH  10  21
ATOM     21  C   UNL     1      35.353  -1.237  16.832  0.00  0.00    +0.114 C 
BRANCH  21  22
ATOM     22  O   UNL     1      36.245  -1.375  15.884  0.00  0.00    -0.246 OA
ATOM     23  H   UNL     1      35.995  -0.848  15.135  0.00  0.00    +0.000 HD
ENDBRANCH  21  22
ENDBRANCH  10  21
TORSDOF 5
ENDMDL
MODEL 16
REMARK minimizedAffinity -4.10295439
REMARK minimizedRMSD -1
REMARK  Name = scaffold
REMARK  6 active torsions:
REMARK  status: ('A' for Active; 'I' for Inactive)
REMARK    1  A    between atoms: C_3  and  O_4
REMARK    2  A    between atoms: C_5  and  C_17
REMARK    3  A    between atoms: C_15  and  C_20
REMARK    4  A    between atoms: C_15  and  C_23
REMARK    5  A    between atoms: C_16  and  C_17
REMARK    6  A    between atoms: C_23  and  O_25
REMARK                            x       y       z     vdW  Elec       q    Type
REMARK                         _______ _______ _______ _____ _____    ______ ____
ROOT
ATOM      1  C   UNL     1      30.537   0.542  29.011  0.00  0.00    -0.024 A 
ATOM      2  C   UNL     1      30.665   1.366  30.132  0.00  0.00    +0.000 A 
ATOM      3  C   UNL     1      31.925   1.627  30.673  0.00  0.00    +0.074 A 
ATOM      4  C   UNL     1      33.046   1.012  30.106  0.00  0.00    +0.008 A 
ATOM      5  C   UNL     1      32.914   0.181  28.987  0.00  0.00    -0.049 A 
ATOM      6  C   UNL     1      34.162  -0.547  28.483  0.00  0.00    +0.058 C 
ATOM      7  C   UNL     1      33.823  -1.647  27.444  0.00  0.00    +0.018 C 
ATOM      8  C   UNL     1      32.894  -1.049  26.353  0.00  0.00    +0.000 C 
ATOM      9  C   UNL     1      32.689  -1.965  25.098  0.00  0.00    -0.004 C 
ATOM     10  C   UNL     1      31.722  -1.307  24.047  0.00  0.00    +0.006 C 
ATOM     11  C   UNL     1      32.381  -0.106  23.296  0.00  0.00    -0.039 C 
ATOM     12  C   UNL     1      30.409  -0.843  24.746  0.00  0.00    -0.032 C 
ATOM     13  C   UNL     1      30.657   0.055  25.985  0.00  0.00    +0.006 C 
ATOM     14  C   UNL     1      31.525  -0.716  27.018  0.00  0.00    +0.030 C 
ATOM     15  C   UNL     1      31.667   0.024  28.365  0.00  0.00    -0.048 A 
ENDROOT
BRANCH   3  16
ATOM     16  O   UNL     1      32.035   2.488  31.769  0.00  0.00    -0.339 OA
ATOM     17  H   UNL     1      32.929   2.650  32.051  0.00  0.00    +0.246 HD
ENDBRANCH   3  16
BRANCH   9  18
ATOM     18  C   UNL     1      32.009  -3.272  25.619  0.00  0.00    +0.179 C 
BRANCH  18  19
ATOM     19  C   UNL     1      32.913  -4.194  26.297  0.00  0.00    +0.089 C 
ATOM     20  N   UNL     1      33.639  -4.923  26.831  0.00  0.00    -0.304 NA
ENDBRANCH  18  19
ENDBRANCH   9  18
BRANCH  10  21
ATOM     21  C   UNL     1      31.271  -2.375  23.061  0.00  0.00    +0.114 C 
BRANCH  21  22
ATOM     22  O   UNL     1      31.939  -2.848  22.039  0.00  0.00    -0.246 OA
ATOM     23  H   UNL     1      31.417  -3.506  21.596  0.00  0.00    +0.000 HD
ENDBRANCH  21  22
ENDBRANCH  10  21
TORSDOF 5
ENDMDL
MODEL 17
REMARK minimizedAffinity -2.41401744
REMARK minimizedRMSD -1
REMARK  Name = scaffold
REMARK  6 active torsions:
REMARK  status: ('A' for Active; 'I' for Inactive)
REMARK    1  A    between atoms: C_3  and  O_4
REMARK    2  A    between atoms: C_5  and  C_17
REMARK    3  A    between atoms: C_15  and  C_20
REMARK    4  A    between atoms: C_15  and  C_23
REMARK    5  A    between atoms: C_16  and  C_17
REMARK    6  A    between atoms: C_23  and  O_25
REMARK                            x       y       z     vdW  Elec       q    Type
REMARK                         _______ _______ _______ _____ _____    ______ ____
ROOT
ATOM      1  C   UNL     1      28.320  -0.609  27.856  0.00  0.00    -0.024 A 
ATOM      2  C   UNL     1      27.270   0.313  27.876  0.00  0.00    +0.000 A 
ATOM      3  C   UNL     1      27.515   1.664  27.627  0.00  0.00    +0.074 A 
ATOM      4  C   UNL     1      28.831   2.085  27.408  0.00  0.00    +0.008 A 
ATOM      5  C   UNL     1      29.882   1.159  27.395  0.00  0.00    -0.049 A 
ATOM      6  C   UNL     1      31.309   1.697  27.259  0.00  0.00    +0.058 C 
ATOM      7  C   UNL     1      32.377   0.614  27.557  0.00  0.00    +0.018 C 
ATOM      8  C   UNL     1      32.048  -0.664  26.738  0.00  0.00    +0.000 C 
ATOM      9  C   UNL     1      33.186  -1.743  26.730  0.00  0.00    -0.004 C 
ATOM     10  C   UNL     1      32.777  -3.016  25.902  0.00  0.00    +0.006 C 
ATOM     11  C   UNL     1      32.759  -2.750  24.363  0.00  0.00    -0.039 C 
ATOM     12  C   UNL     1      31.382  -3.531  26.371  0.00  0.00    -0.032 C 
ATOM     13  C   UNL     1      30.289  -2.432  26.371  0.00  0.00    +0.006 C 
ATOM     14  C   UNL     1      30.726  -1.267  27.300  0.00  0.00    +0.030 C 
ATOM     15  C   UNL     1      29.620  -0.212  27.514  0.00  0.00    -0.048 A 
ENDROOT
BRANCH   3  16
ATOM     16  O   UNL     1      26.444   2.563  27.611  0.00  0.00    -0.339 OA
ATOM     17  H   UNL     1      26.686   3.456  27.391  0.00  0.00    +0.246 HD
ENDBRANCH   3  16
BRANCH   9  18
ATOM     18  C   UNL     1      33.380  -2.183  28.217  0.00  0.00    +0.179 C 
BRANCH  18  19
ATOM     19  C   UNL     1      34.484  -1.519  28.903  0.00  0.00    +0.089 C 
ATOM     20  N   UNL     1      35.366  -0.997  29.442  0.00  0.00    -0.304 NA
ENDBRANCH  18  19
ENDBRANCH   9  18
BRANCH  10  21
ATOM     21  C   UNL     1      33.734  -4.148  26.241  0.00  0.00    +0.114 C 
BRANCH  21  22
ATOM     22  O   UNL     1      34.822  -4.491  25.597  0.00  0.00    -0.246 OA
ATOM     23  H   UNL     1      35.225  -5.234  26.029  0.00  0.00    +0.000 HD
ENDBRANCH  21  22
ENDBRANCH  10  21
TORSDOF 5
ENDMDL
MODEL 18
REMARK minimizedAffinity -2.01324224
REMARK minimizedRMSD -1
REMARK  Name = scaffold
REMARK  6 active torsions:
REMARK  status: ('A' for Active; 'I' for Inactive)
REMARK    1  A    between atoms: C_3  and  O_4
REMARK    2  A    between atoms: C_5  and  C_17
REMARK    3  A    between atoms: C_15  and  C_20
REMARK    4  A    between atoms: C_15  and  C_23
REMARK    5  A    between atoms: C_16  and  C_17
REMARK    6  A    between atoms: C_23  and  O_25
REMARK                            x       y       z     vdW  Elec       q    Type
REMARK                         _______ _______ _______ _____ _____    ______ ____
ROOT
ATOM      1  C   UNL     1      32.196  -2.270  25.238  0.00  0.00    -0.024 A 
ATOM      2  C   UNL     1      32.952  -3.414  24.970  0.00  0.00    +0.000 A 
ATOM      3  C   UNL     1      33.397  -4.224  26.016  0.00  0.00    +0.074 A 
ATOM      4  C   UNL     1      33.115  -3.845  27.333  0.00  0.00    +0.008 A 
ATOM      5  C   UNL     1      32.363  -2.694  27.598  0.00  0.00    -0.049 A 
ATOM      6  C   UNL     1      32.184  -2.276  29.059  0.00  0.00    +0.058 C 
ATOM      7  C   UNL     1      31.597  -0.847  29.195  0.00  0.00    +0.018 C 
ATOM      8  C   UNL     1      30.340  -0.724  28.290  0.00  0.00    +0.000 C 
ATOM      9  C   UNL     1      29.489   0.571  28.529  0.00  0.00    -0.004 C 
ATOM     10  C   UNL     1      28.249   0.639  27.566  0.00  0.00    +0.006 C 
ATOM     11  C   UNL     1      27.136  -0.389  27.948  0.00  0.00    -0.039 C 
ATOM     12  C   UNL     1      28.703   0.411  26.093  0.00  0.00    -0.032 C 
ATOM     13  C   UNL     1      29.546  -0.875  25.902  0.00  0.00    +0.006 C 
ATOM     14  C   UNL     1      30.807  -0.806  26.806  0.00  0.00    +0.030 C 
ATOM     15  C   UNL     1      31.806  -1.954  26.546  0.00  0.00    -0.048 A 
ENDROOT
BRANCH   3  16
ATOM     16  O   UNL     1      34.116  -5.386  25.724  0.00  0.00    -0.339 OA
ATOM     17  H   UNL     1      34.345  -5.907  26.487  0.00  0.00    +0.246 HD
ENDBRANCH   3  16
BRANCH   9  18
ATOM     18  C   UNL     1      30.425   1.776  28.189  0.00  0.00    +0.179 C 
BRANCH  18  19
ATOM     19  C   UNL     1      31.427   2.068  29.207  0.00  0.00    +0.089 C 
ATOM     20  N   UNL     1      32.227   2.292  30.015  0.00  0.00    -0.304 NA
ENDBRANCH  18  19
ENDBRANCH   9  18
BRANCH  10  21
ATOM     21  C   UNL     1      27.696   2.057  27.579  0.00  0.00    +0.114 C 
BRANCH  21  22
ATOM     22  O   UNL     1      26.440   2.421  27.626  0.00  0.00    -0.246 OA
ATOM     23  H   UNL     1      26.385   3.370  27.622  0.00  0.00    +0.000 HD
ENDBRANCH  21  22
ENDBRANCH  10  21
TORSDOF 5
ENDMDL
MODEL 19
REMARK minimizedAffinity 2.46994781
REMARK minimizedRMSD -1
REMARK  Name = scaffold
REMARK  6 active torsions:
REMARK  status: ('A' for Active; 'I' for Inactive)
REMARK    1  A    between atoms: C_3  and  O_4
REMARK    2  A    between atoms: C_5  and  C_17
REMARK    3  A    between atoms: C_15  and  C_20
REMARK    4  A    between atoms: C_15  and  C_23
REMARK    5  A    between atoms: C_16  and  C_17
REMARK    6  A    between atoms: C_23  and  O_25
REMARK                            x       y       z     vdW  Elec       q    Type
REMARK                         _______ _______ _______ _____ _____    ______ ____
ROOT
ATOM      1  C   UNL     1      36.274   0.059  19.322  0.00  0.00    -0.024 A 
ATOM      2  C   UNL     1      36.111   1.131  20.204  0.00  0.00    +0.000 A 
ATOM      3  C   UNL     1      35.638   2.359  19.738  0.00  0.00    +0.074 A 
ATOM      4  C   UNL     1      35.379   2.511  18.372  0.00  0.00    +0.008 A 
ATOM      5  C   UNL     1      35.550   1.437  17.490  0.00  0.00    -0.049 A 
ATOM      6  C   UNL     1      35.356   1.699  15.995  0.00  0.00    +0.058 C 
ATOM      7  C   UNL     1      35.860   0.523  15.120  0.00  0.00    +0.018 C 
ATOM      8  C   UNL     1      35.268  -0.806  15.663  0.00  0.00    +0.000 C 
ATOM      9  C   UNL     1      35.472  -2.043  14.721  0.00  0.00    -0.004 C 
ATOM     10  C   UNL     1      34.868  -3.355  15.343  0.00  0.00    +0.006 C 
ATOM     11  C   UNL     1      33.306  -3.363  15.327  0.00  0.00    -0.039 C 
ATOM     12  C   UNL     1      35.387  -3.543  16.801  0.00  0.00    -0.032 C 
ATOM     13  C   UNL     1      35.172  -2.295  17.695  0.00  0.00    +0.006 C 
ATOM     14  C   UNL     1      35.895  -1.075  17.064  0.00  0.00    +0.030 C 
ATOM     15  C   UNL     1      35.899   0.170  17.977  0.00  0.00    -0.048 A 
ENDROOT
BRANCH   3  16
ATOM     16  O   UNL     1      35.442   3.406  20.644  0.00  0.00    -0.339 OA
ATOM     17  H   UNL     1      35.076   4.194  20.258  0.00  0.00    +0.246 HD
ENDBRANCH   3  16
BRANCH   9  18
ATOM     18  C   UNL     1      37.016  -2.243  14.593  0.00  0.00    +0.179 C 
BRANCH  18  19
ATOM     19  C   UNL     1      37.771  -1.008  14.406  0.00  0.00    +0.089 C 
ATOM     20  N   UNL     1      38.378  -0.033  14.256  0.00  0.00    -0.304 NA
ENDBRANCH  18  19
ENDBRANCH   9  18
BRANCH  10  21
ATOM     21  C   UNL     1      35.419  -4.554  14.586  0.00  0.00    +0.114 C 
BRANCH  21  22
ATOM     22  O   UNL     1      34.779  -5.647  14.252  0.00  0.00    -0.246 OA
ATOM     23  H   UNL     1      35.368  -6.228  13.784  0.00  0.00    +0.000 HD
ENDBRANCH  21  22
ENDBRANCH  10  21
TORSDOF 5
ENDMDL
MODEL 20
REMARK minimizedAffinity 6.21329165
REMARK minimizedRMSD -1
REMARK  Name = scaffold
REMARK  6 active torsions:
REMARK  status: ('A' for Active; 'I' for Inactive)
REMARK    1  A    between atoms: C_3  and  O_4
REMARK    2  A    between atoms: C_5  and  C_17
REMARK    3  A    between atoms: C_15  and  C_20
REMARK    4  A    between atoms: C_15  and  C_23
REMARK    5  A    between atoms: C_16  and  C_17
REMARK    6  A    between atoms: C_23  and  O_25
REMARK                            x       y       z     vdW  Elec       q    Type
REMARK                         _______ _______ _______ _____ _____    ______ ____
ROOT
ATOM      1  C   UNL     1      31.757   1.821  27.721  0.00  0.00    -0.024 A 
ATOM      2  C   UNL     1      31.920   3.171  28.040  0.00  0.00    +0.000 A 
ATOM      3  C   UNL     1      33.188   3.754  28.007  0.00  0.00    +0.074 A 
ATOM      4  C   UNL     1      34.293   2.954  27.699  0.00  0.00    +0.008 A 
ATOM      5  C   UNL     1      34.127   1.599  27.386  0.00  0.00    -0.049 A 
ATOM      6  C   UNL     1      35.384   0.755  27.165  0.00  0.00    +0.058 C 
ATOM      7  C   UNL     1      35.075  -0.763  27.125  0.00  0.00    +0.018 C 
ATOM      8  C   UNL     1      33.900  -1.018  26.140  0.00  0.00    +0.000 C 
ATOM      9  C   UNL     1      33.657  -2.527  25.793  0.00  0.00    -0.004 C 
ATOM     10  C   UNL     1      32.442  -2.711  24.812  0.00  0.00    +0.006 C 
ATOM     11  C   UNL     1      32.767  -2.234  23.360  0.00  0.00    -0.039 C 
ATOM     12  C   UNL     1      31.196  -1.949  25.356  0.00  0.00    -0.032 C 
ATOM     13  C   UNL     1      31.482  -0.464  25.693  0.00  0.00    +0.006 C 
ATOM     14  C   UNL     1      32.616  -0.382  26.751  0.00  0.00    +0.030 C 
ATOM     15  C   UNL     1      32.842   1.046  27.291  0.00  0.00    -0.048 A 
ENDROOT
BRANCH   3  16
ATOM     16  O   UNL     1      33.323   5.116  28.289  0.00  0.00    -0.339 OA
ATOM     17  H   UNL     1      34.210   5.448  28.203  0.00  0.00    +0.246 HD
ENDBRANCH   3  16
BRANCH   9  18
ATOM     18  C   UNL     1      33.292  -3.231  27.140  0.00  0.00    +0.179 C 
BRANCH  18  19
ATOM     19  C   UNL     1      32.384  -2.470  27.991  0.00  0.00    +0.089 C 
ATOM     20  N   UNL     1      31.667  -1.859  28.665  0.00  0.00    -0.304 NA
ENDBRANCH  18  19
ENDBRANCH   9  18
BRANCH  10  21
ATOM     21  C   UNL     1      32.026  -4.174  24.816  0.00  0.00    +0.114 C 
BRANCH  21  22
ATOM     22  O   UNL     1      32.368  -5.096  25.680  0.00  0.00    -0.246 OA
ATOM     23  H   UNL     1      31.963  -5.921  25.440  0.00  0.00    +0.000 HD
ENDBRANCH  21  22
ENDBRANCH  10  21
TORSDOF 5
ENDMDL
