MODEL 1
REMARK minimizedAffinity -8.38533497
REMARK minimizedRMSD -1
REMARK  Name = scaffold
REMARK  6 active torsions:
REMARK  status: ('A' for Active; 'I' for Inactive)
REMARK    1  A    between atoms: C_3  and  O_4
REMARK    2  A    between atoms: C_5  and  C_17
REMARK    3  A    between atoms: C_15  and  C_20
REMARK    4  A    between atoms: C_15  and  C_23
REMARK    5  A    between atoms: C_16  and  C_17
REMARK    6  A    between atoms: C_23  and  O_25
REMARK                            x       y       z     vdW  Elec       q    Type
REMARK                         _______ _______ _______ _____ _____    ______ ____
ROOT
ATOM      1  C   UNL     1      27.525  -1.862  28.027  0.00  0.00    -0.024 A 
ATOM      2  C   UNL     1      26.157  -1.692  27.799  0.00  0.00    +0.000 A 
ATOM      3  C   UNL     1      25.679  -0.503  27.246  0.00  0.00    +0.074 A 
ATOM      4  C   UNL     1      26.583   0.529  26.971  0.00  0.00    +0.008 A 
ATOM      5  C   UNL     1      27.953   0.357  27.208  0.00  0.00    -0.049 A 
ATOM      6  C   UNL     1      28.873   1.560  26.990  0.00  0.00    +0.058 C 
ATOM      7  C   UNL     1      30.294   1.326  27.565  0.00  0.00    +0.018 C 
ATOM      8  C   UNL     1      30.828  -0.043  27.062  0.00  0.00    +0.000 C 
ATOM      9  C   UNL     1      32.351  -0.290  27.341  0.00  0.00    -0.004 C 
ATOM     10  C   UNL     1      32.816  -1.701  26.826  0.00  0.00    +0.006 C 
ATOM     11  C   UNL     1      32.897  -1.773  25.267  0.00  0.00    -0.039 C 
ATOM     12  C   UNL     1      31.859  -2.807  27.362  0.00  0.00    -0.032 C 
ATOM     13  C   UNL     1      30.364  -2.521  27.071  0.00  0.00    +0.006 C 
ATOM     14  C   UNL     1      29.963  -1.164  27.712  0.00  0.00    +0.030 C 
ATOM     15  C   UNL     1      28.447  -0.881  27.639  0.00  0.00    -0.048 A 
ENDROOT
BRANCH   3  16
ATOM     16  O   UNL     1      24.311  -0.369  26.987  0.00  0.00    -0.339 OA
ATOM     17  H   UNL     1      24.070   0.451  26.569  0.00  0.00    +0.246 HD
ENDBRANCH   3  16
BRANCH   9  18
ATOM     18  C   UNL     1      32.518  -0.271  28.895  0.00  0.00    +0.179 C 
BRANCH  18  19
ATOM     19  C   UNL     1      33.350   0.817  29.399  0.00  0.00    +0.089 C 
ATOM     20  N   UNL     1      34.018   1.674  29.797  0.00  0.00    -0.304 NA
ENDBRANCH  18  19
ENDBRANCH   9  18
BRANCH  10  21
ATOM     21  C   UNL     1      34.165  -2.029  27.449  0.00  0.00    +0.114 C 
BRANCH  21  22
ATOM     22  O   UNL     1      35.325  -1.493  27.164  0.00  0.00    -0.246 OA
ATOM     23  H   UNL     1      35.998  -1.888  27.707  0.00  0.00    +0.000 HD
ENDBRANCH  21  22
ENDBRANCH  10  21
TORSDOF 5
ENDMDL
MODEL 2
REMARK minimizedAffinity -8.35575485
REMARK minimizedRMSD -1
REMARK  Name = scaffold
REMARK  6 active torsions:
REMARK  status: ('A' for Active; 'I' for Inactive)
REMARK    1  A    between atoms: C_3  and  O_4
REMARK    2  A    between atoms: C_5  and  C_17
REMARK    3  A    between atoms: C_15  and  C_20
REMARK    4  A    between atoms: C_15  and  C_23
REMARK    5  A    between atoms: C_16  and  C_17
REMARK    6  A    between atoms: C_23  and  O_25
REMARK                            x       y       z     vdW  Elec       q    Type
REMARK                         _______ _______ _______ _____ _____    ______ ____
ROOT
ATOM      1  C   UNL     1      28.136   0.311  26.439  0.00  0.00    -0.024 A 
ATOM      2  C   UNL     1      26.757   0.220  26.650  0.00  0.00    +0.000 A 
ATOM      3  C   UNL     1      26.228  -0.834  27.396  0.00  0.00    +0.074 A 
ATOM      4  C   UNL     1      27.092  -1.819  27.886  0.00  0.00    +0.008 A 
ATOM      5  C   UNL     1      28.473  -1.728  27.667  0.00  0.00    -0.049 A 
ATOM      6  C   UNL     1      29.350  -2.892  28.133  0.00  0.00    +0.058 C 
ATOM      7  C   UNL     1      30.792  -2.804  27.571  0.00  0.00    +0.018 C 
ATOM      8  C   UNL     1      31.354  -1.379  27.831  0.00  0.00    +0.000 C 
ATOM      9  C   UNL     1      32.891  -1.226  27.561  0.00  0.00    -0.004 C 
ATOM     10  C   UNL     1      33.384   0.244  27.822  0.00  0.00    +0.006 C 
ATOM     11  C   UNL     1      33.424   0.602  29.343  0.00  0.00    -0.039 C 
ATOM     12  C   UNL     1      32.476   1.256  27.061  0.00  0.00    -0.032 C 
ATOM     13  C   UNL     1      30.966   1.065  27.350  0.00  0.00    +0.006 C 
ATOM     14  C   UNL     1      30.541  -0.377  26.957  0.00  0.00    +0.030 C 
ATOM     15  C   UNL     1      29.017  -0.604  27.031  0.00  0.00    -0.048 A 
ENDROOT
BRANCH   3  16
ATOM     16  O   UNL     1      24.851  -0.883  27.631  0.00  0.00    -0.339 OA
ATOM     17  H   UNL     1      24.573  -1.606  28.184  0.00  0.00    +0.246 HD
ENDBRANCH   3  16
BRANCH   9  18
ATOM     18  C   UNL     1      33.100  -1.536  26.044  0.00  0.00    +0.179 C 
BRANCH  18  19
ATOM     19  C   UNL     1      33.242  -2.955  25.732  0.00  0.00    +0.089 C 
ATOM     20  N   UNL     1      33.350  -4.082  25.493  0.00  0.00    -0.304 NA
ENDBRANCH  18  19
ENDBRANCH   9  18
BRANCH  10  21
ATOM     21  C   UNL     1      34.759   0.418  27.194  0.00  0.00    +0.114 C 
BRANCH  21  22
ATOM     22  O   UNL     1      35.426   1.533  27.035  0.00  0.00    -0.246 OA
ATOM     23  H   UNL     1      36.257   1.347  26.614  0.00  0.00    +0.000 HD
ENDBRANCH  21  22
ENDBRANCH  10  21
TORSDOF 5
ENDMDL
MODEL 3
REMARK minimizedAffinity -7.98402071
REMARK minimizedRMSD -1
REMARK  Name = scaffold
REMARK  6 active torsions:
REMARK  status: ('A' for Active; 'I' for Inactive)
REMARK    1  A    between atoms: C_3  and  O_4
REMARK    2  A    between atoms: C_5  and  C_17
REMARK    3  A    between atoms: C_15  and  C_20
REMARK    4  A    between atoms: C_15  and  C_23
REMARK    5  A    between atoms: C_16  and  C_17
REMARK    6  A    between atoms: C_23  and  O_25
REMARK                            x       y       z     vdW  Elec       q    Type
REMARK                         _______ _______ _______ _____ _____    ______ ____
ROOT
ATOM      1  C   UNL     1      28.688  -1.404  26.990  0.00  0.00    -0.024 A 
ATOM      2  C   UNL     1      27.308  -1.506  26.794  0.00  0.00    +0.000 A 
ATOM      3  C   UNL     1      26.493  -0.381  26.933  0.00  0.00    +0.074 A 
ATOM      4  C   UNL     1      27.073   0.833  27.316  0.00  0.00    +0.008 A 
ATOM      5  C   UNL     1      28.456   0.929  27.518  0.00  0.00    -0.049 A 
ATOM      6  C   UNL     1      29.012   2.255  28.042  0.00  0.00    +0.058 C 
ATOM      7  C   UNL     1      30.489   2.134  28.500  0.00  0.00    +0.018 C 
ATOM      8  C   UNL     1      31.314   1.442  27.380  0.00  0.00    +0.000 C 
ATOM      9  C   UNL     1      32.867   1.495  27.587  0.00  0.00    -0.004 C 
ATOM     10  C   UNL     1      33.635   0.758  26.430  0.00  0.00    +0.006 C 
ATOM     11  C   UNL     1      33.599   1.552  25.085  0.00  0.00    -0.039 C 
ATOM     12  C   UNL     1      33.046  -0.669  26.223  0.00  0.00    -0.032 C 
ATOM     13  C   UNL     1      31.508  -0.678  26.029  0.00  0.00    +0.006 C 
ATOM     14  C   UNL     1      30.826  -0.034  27.267  0.00  0.00    +0.030 C 
ATOM     15  C   UNL     1      29.289  -0.166  27.252  0.00  0.00    -0.048 A 
ENDROOT
BRANCH   3  16
ATOM     16  O   UNL     1      25.121  -0.495  26.691  0.00  0.00    -0.339 OA
ATOM     17  H   UNL     1      24.641   0.323  26.763  0.00  0.00    +0.246 HD
ENDBRANCH   3  16
BRANCH   9  18
ATOM     18  C   UNL     1      33.155   0.726  28.917  0.00  0.00    +0.179 C 
BRANCH  18  19
ATOM     19  C   UNL     1      34.336   1.188  29.637  0.00  0.00    +0.089 C 
ATOM     20  N   UNL     1      35.280   1.552  30.203  0.00  0.00    -0.304 NA
ENDBRANCH  18  19
ENDBRANCH   9  18
BRANCH  10  21
ATOM     21  C   UNL     1      35.071   0.517  26.873  0.00  0.00    +0.114 C 
BRANCH  21  22
ATOM     22  O   UNL     1      36.054   1.381  26.892  0.00  0.00    -0.246 OA
ATOM     23  H   UNL     1      36.841   0.958  27.214  0.00  0.00    +0.000 HD
ENDBRANCH  21  22
ENDBRANCH  10  21
TORSDOF 5
ENDMDL
MODEL 4
REMARK minimizedAffinity -6.93396378
REMARK minimizedRMSD -1
REMARK  Name = scaffold
REMARK  6 active torsions:
REMARK  status: ('A' for Active; 'I' for Inactive)
REMARK    1  A    between atoms: C_3  and  O_4
REMARK    2  A    between atoms: C_5  and  C_17
REMARK    3  A    between atoms: C_15  and  C_20
REMARK    4  A    between atoms: C_15  and  C_23
REMARK    5  A    between atoms: C_16  and  C_17
REMARK    6  A    between atoms: C_23  and  O_25
REMARK                            x       y       z     vdW  Elec       q    Type
REMARK                         _______ _______ _______ _____ _____    ______ ____
ROOT
ATOM      1  C   UNL     1      31.777  -1.618  23.193  0.00  0.00    -0.024 A 
ATOM      2  C   UNL     1      32.076  -2.604  22.248  0.00  0.00    +0.000 A 
ATOM      3  C   UNL     1      32.567  -3.844  22.658  0.00  0.00    +0.074 A 
ATOM      4  C   UNL     1      32.799  -4.065  24.020  0.00  0.00    +0.008 A 
ATOM      5  C   UNL     1      32.505  -3.072  24.963  0.00  0.00    -0.049 A 
ATOM      6  C   UNL     1      32.885  -3.335  26.422  0.00  0.00    +0.058 C 
ATOM      7  C   UNL     1      32.782  -2.059  27.296  0.00  0.00    +0.018 C 
ATOM      8  C   UNL     1      31.400  -1.390  27.060  0.00  0.00    +0.000 C 
ATOM      9  C   UNL     1      31.048  -0.247  28.073  0.00  0.00    -0.004 C 
ATOM     10  C   UNL     1      29.649   0.398  27.761  0.00  0.00    +0.006 C 
ATOM     11  C   UNL     1      28.458  -0.546  28.124  0.00  0.00    -0.039 C 
ATOM     12  C   UNL     1      29.569   0.801  26.258  0.00  0.00    -0.032 C 
ATOM     13  C   UNL     1      29.931  -0.355  25.291  0.00  0.00    +0.006 C 
ATOM     14  C   UNL     1      31.370  -0.855  25.597  0.00  0.00    +0.030 C 
ATOM     15  C   UNL     1      31.891  -1.877  24.565  0.00  0.00    -0.048 A 
ENDROOT
BRANCH   3  16
ATOM     16  O   UNL     1      32.819  -4.831  21.701  0.00  0.00    -0.339 OA
ATOM     17  H   UNL     1      33.109  -5.662  22.062  0.00  0.00    +0.246 HD
ENDBRANCH   3  16
BRANCH   9  18
ATOM     18  C   UNL     1      32.137   0.858  27.878  0.00  0.00    +0.179 C 
BRANCH  18  19
ATOM     19  C   UNL     1      32.901   1.171  29.081  0.00  0.00    +0.089 C 
ATOM     20  N   UNL     1      33.508   1.428  30.033  0.00  0.00    -0.304 NA
ENDBRANCH  18  19
ENDBRANCH   9  18
BRANCH  10  21
ATOM     21  C   UNL     1      29.538   1.716  28.514  0.00  0.00    +0.114 C 
BRANCH  21  22
ATOM     22  O   UNL     1      28.544   2.567  28.487  0.00  0.00    -0.246 OA
ATOM     23  H   UNL     1      28.742   3.304  29.053  0.00  0.00    +0.000 HD
ENDBRANCH  21  22
ENDBRANCH  10  21
TORSDOF 5
ENDMDL
MODEL 5
REMARK minimizedAffinity -6.88029051
REMARK minimizedRMSD -1
REMARK  Name = scaffold
REMARK  6 active torsions:
REMARK  status: ('A' for Active; 'I' for Inactive)
REMARK    1  A    between atoms: C_3  and  O_4
REMARK    2  A    between atoms: C_5  and  C_17
REMARK    3  A    between atoms: C_15  and  C_20
REMARK    4  A    between atoms: C_15  and  C_23
REMARK    5  A    between atoms: C_16  and  C_17
REMARK    6  A    between atoms: C_23  and  O_25
REMARK                            x       y       z     vdW  Elec       q    Type
REMARK                         _______ _______ _______ _____ _____    ______ ____
ROOT
ATOM      1  C   UNL     1      32.202  -1.610  23.276  0.00  0.00    -0.024 A 
ATOM      2  C   UNL     1      32.079  -2.550  22.249  0.00  0.00    +0.000 A 
ATOM      3  C   UNL     1      32.242  -3.910  22.517  0.00  0.00    +0.074 A 
ATOM      4  C   UNL     1      32.576  -4.309  23.815  0.00  0.00    +0.008 A 
ATOM      5  C   UNL     1      32.705  -3.364  24.840  0.00  0.00    -0.049 A 
ATOM      6  C   UNL     1      33.180  -3.854  26.211  0.00  0.00    +0.058 C 
ATOM      7  C   UNL     1      33.562  -2.684  27.154  0.00  0.00    +0.018 C 
ATOM      8  C   UNL     1      32.413  -1.640  27.162  0.00  0.00    +0.000 C 
ATOM      9  C   UNL     1      32.540  -0.541  28.273  0.00  0.00    -0.004 C 
ATOM     10  C   UNL     1      31.357   0.493  28.208  0.00  0.00    +0.006 C 
ATOM     11  C   UNL     1      30.003  -0.113  28.698  0.00  0.00    -0.039 C 
ATOM     12  C   UNL     1      31.202   1.037  26.756  0.00  0.00    -0.032 C 
ATOM     13  C   UNL     1      31.087  -0.081  25.689  0.00  0.00    +0.006 C 
ATOM     14  C   UNL     1      32.348  -0.986  25.749  0.00  0.00    +0.030 C 
ATOM     15  C   UNL     1      32.414  -2.014  24.600  0.00  0.00    -0.048 A 
ENDROOT
BRANCH   3  16
ATOM     16  O   UNL     1      32.073  -4.837  21.484  0.00  0.00    -0.339 OA
ATOM     17  H   UNL     1      32.156  -5.744  21.755  0.00  0.00    +0.246 HD
ENDBRANCH   3  16
BRANCH   9  18
ATOM     18  C   UNL     1      33.865   0.232  27.972  0.00  0.00    +0.179 C 
BRANCH  18  19
ATOM     19  C   UNL     1      34.932  -0.002  28.939  0.00  0.00    +0.089 C 
ATOM     20  N   UNL     1      35.774  -0.193  29.711  0.00  0.00    -0.304 NA
ENDBRANCH  18  19
ENDBRANCH   9  18
BRANCH  10  21
ATOM     21  C   UNL     1      31.728   1.715  29.035  0.00  0.00    +0.114 C 
BRANCH  21  22
ATOM     22  O   UNL     1      31.833   1.792  30.338  0.00  0.00    -0.246 OA
ATOM     23  H   UNL     1      32.079   2.677  30.583  0.00  0.00    +0.000 HD
ENDBRANCH  21  22
ENDBRANCH  10  21
TORSDOF 5
ENDMDL
MODEL 6
REMARK minimizedAffinity -6.56237984
REMARK minimizedRMSD -1
REMARK  Name = scaffold
REMARK  6 active torsions:
REMARK  status: ('A' for Active; 'I' for Inactive)
REMARK    1  A    between atoms: C_3  and  O_4
REMARK    2  A    between atoms: C_5  and  C_17
REMARK    3  A    between atoms: C_15  and  C_20
REMARK    4  A    between atoms: C_15  and  C_23
REMARK    5  A    between atoms: C_16  and  C_17
REMARK    6  A    between atoms: C_23  and  O_25
REMARK                            x       y       z     vdW  Elec       q    Type
REMARK                         _______ _______ _______ _____ _____    ______ ____
ROOT
ATOM      1  C   UNL     1      32.379  -3.395  17.741  0.00  0.00    -0.024 A 
ATOM      2  C   UNL     1      31.108  -3.919  17.993  0.00  0.00    +0.000 A 
ATOM      3  C   UNL     1      30.577  -3.884  19.283  0.00  0.00    +0.074 A 
ATOM      4  C   UNL     1      31.353  -3.362  20.322  0.00  0.00    +0.008 A 
ATOM      5  C   UNL     1      32.629  -2.843  20.067  0.00  0.00    -0.049 A 
ATOM      6  C   UNL     1      33.470  -2.388  21.262  0.00  0.00    +0.058 C 
ATOM      7  C   UNL     1      34.947  -2.121  20.876  0.00  0.00    +0.018 C 
ATOM      8  C   UNL     1      34.987  -1.203  19.623  0.00  0.00    +0.000 C 
ATOM      9  C   UNL     1      36.406  -0.631  19.281  0.00  0.00    -0.004 C 
ATOM     10  C   UNL     1      36.376   0.270  17.992  0.00  0.00    +0.006 C 
ATOM     11  C   UNL     1      35.674   1.643  18.236  0.00  0.00    -0.039 C 
ATOM     12  C   UNL     1      35.672  -0.489  16.827  0.00  0.00    -0.032 C 
ATOM     13  C   UNL     1      34.276  -1.044  17.210  0.00  0.00    +0.006 C 
ATOM     14  C   UNL     1      34.416  -2.009  18.418  0.00  0.00    +0.030 C 
ATOM     15  C   UNL     1      33.110  -2.759  18.753  0.00  0.00    -0.048 A 
ENDROOT
BRANCH   3  16
ATOM     16  O   UNL     1      29.287  -4.377  19.506  0.00  0.00    -0.339 OA
ATOM     17  H   UNL     1      28.979  -4.277  20.400  0.00  0.00    +0.246 HD
ENDBRANCH   3  16
BRANCH   9  18
ATOM     18  C   UNL     1      37.313  -1.867  18.978  0.00  0.00    +0.179 C 
BRANCH  18  19
ATOM     19  C   UNL     1      38.257  -2.198  20.040  0.00  0.00    +0.089 C 
ATOM     20  N   UNL     1      39.000  -2.455  20.890  0.00  0.00    -0.304 NA
ENDBRANCH  18  19
ENDBRANCH   9  18
BRANCH  10  21
ATOM     21  C   UNL     1      37.803   0.475  17.505  0.00  0.00    +0.114 C 
BRANCH  21  22
ATOM     22  O   UNL     1      38.302   0.144  16.341  0.00  0.00    -0.246 OA
ATOM     23  H   UNL     1      39.219   0.389  16.308  0.00  0.00    +0.000 HD
ENDBRANCH  21  22
ENDBRANCH  10  21
TORSDOF 5
ENDMDL
MODEL 7
REMARK minimizedAffinity -6.39764738
REMARK minimizedRMSD -1
REMARK  Name = scaffold
REMARK  6 active torsions:
REMARK  status: ('A' for Active; 'I' for Inactive)
REMARK    1  A    between atoms: C_3  and  O_4
REMARK    2  A    between atoms: C_5  and  C_17
REMARK    3  A    between atoms: C_15  and  C_20
REMARK    4  A    between atoms: C_15  and  C_23
REMARK    5  A    between atoms: C_16  and  C_17
REMARK    6  A    between atoms: C_23  and  O_25
REMARK                            x       y       z     vdW  Elec       q    Type
REMARK                         _______ _______ _______ _____ _____    ______ ____
ROOT
ATOM      1  C   UNL     1      33.844  -1.001  26.440  0.00  0.00    -0.024 A 
ATOM      2  C   UNL     1      35.189  -1.191  26.768  0.00  0.00    +0.000 A 
ATOM      3  C   UNL     1      35.613  -1.070  28.092  0.00  0.00    +0.074 A 
ATOM      4  C   UNL     1      34.683  -0.708  29.071  0.00  0.00    +0.008 A 
ATOM      5  C   UNL     1      33.337  -0.512  28.738  0.00  0.00    -0.049 A 
ATOM      6  C   UNL     1      32.393  -0.011  29.833  0.00  0.00    +0.058 C 
ATOM      7  C   UNL     1      31.023   0.445  29.268  0.00  0.00    +0.018 C 
ATOM      8  C   UNL     1      30.462  -0.665  28.337  0.00  0.00    +0.000 C 
ATOM      9  C   UNL     1      28.967  -0.462  27.910  0.00  0.00    -0.004 C 
ATOM     10  C   UNL     1      28.474  -1.608  26.953  0.00  0.00    +0.006 C 
ATOM     11  C   UNL     1      28.273  -2.966  27.698  0.00  0.00    -0.039 C 
ATOM     12  C   UNL     1      29.478  -1.790  25.775  0.00  0.00    -0.032 C 
ATOM     13  C   UNL     1      30.944  -1.981  26.241  0.00  0.00    +0.006 C 
ATOM     14  C   UNL     1      31.384  -0.752  27.084  0.00  0.00    +0.030 C 
ATOM     15  C   UNL     1      32.887  -0.761  27.434  0.00  0.00    -0.048 A 
ENDROOT
BRANCH   3  16
ATOM     16  O   UNL     1      36.955  -1.306  28.405  0.00  0.00    -0.339 OA
ATOM     17  H   UNL     1      37.157  -1.248  29.332  0.00  0.00    +0.246 HD
ENDBRANCH   3  16
BRANCH   9  18
ATOM     18  C   UNL     1      28.922   0.880  27.110  0.00  0.00    +0.179 C 
BRANCH  18  19
ATOM     19  C   UNL     1      28.411   2.017  27.868  0.00  0.00    +0.089 C 
ATOM     20  N   UNL     1      28.007   2.915  28.477  0.00  0.00    -0.304 NA
ENDBRANCH  18  19
ENDBRANCH   9  18
BRANCH  10  21
ATOM     21  C   UNL     1      27.181  -1.166  26.285  0.00  0.00    +0.114 C 
BRANCH  21  22
ATOM     22  O   UNL     1      26.038  -0.894  26.864  0.00  0.00    -0.246 OA
ATOM     23  H   UNL     1      25.401  -0.642  26.206  0.00  0.00    +0.000 HD
ENDBRANCH  21  22
ENDBRANCH  10  21
TORSDOF 5
ENDMDL
MODEL 8
REMARK minimizedAffinity -6.22117376
REMARK minimizedRMSD -1
REMARK  Name = scaffold
REMARK  6 active torsions:
REMARK  status: ('A' for Active; 'I' for Inactive)
REMARK    1  A    between atoms: C_3  and  O_4
REMARK    2  A    between atoms: C_5  and  C_17
REMARK    3  A    between atoms: C_15  and  C_20
REMARK    4  A    between atoms: C_15  and  C_23
REMARK    5  A    between atoms: C_16  and  C_17
REMARK    6  A    between atoms: C_23  and  O_25
REMARK                            x       y       z     vdW  Elec       q    Type
REMARK                         _______ _______ _______ _____ _____    ______ ____
ROOT
ATOM      1  C   UNL     1      32.690  -3.882  24.714  0.00  0.00    -0.024 A 
ATOM      2  C   UNL     1      32.589  -4.579  23.507  0.00  0.00    +0.000 A 
ATOM      3  C   UNL     1      32.299  -3.898  22.324  0.00  0.00    +0.074 A 
ATOM      4  C   UNL     1      32.064  -2.520  22.375  0.00  0.00    +0.008 A 
ATOM      5  C   UNL     1      32.159  -1.826  23.588  0.00  0.00    -0.049 A 
ATOM      6  C   UNL     1      31.782  -0.342  23.595  0.00  0.00    +0.058 C 
ATOM      7  C   UNL     1      31.645   0.223  25.032  0.00  0.00    +0.018 C 
ATOM      8  C   UNL     1      32.902  -0.167  25.856  0.00  0.00    +0.000 C 
ATOM      9  C   UNL     1      33.027   0.562  27.238  0.00  0.00    -0.004 C 
ATOM     10  C   UNL     1      34.309   0.104  28.025  0.00  0.00    +0.006 C 
ATOM     11  C   UNL     1      35.628   0.661  27.400  0.00  0.00    -0.039 C 
ATOM     12  C   UNL     1      34.367  -1.452  28.091  0.00  0.00    -0.032 C 
ATOM     13  C   UNL     1      34.233  -2.132  26.705  0.00  0.00    +0.006 C 
ATOM     14  C   UNL     1      32.889  -1.713  26.050  0.00  0.00    +0.030 C 
ATOM     15  C   UNL     1      32.577  -2.486  24.751  0.00  0.00    -0.048 A 
ENDROOT
BRANCH   3  16
ATOM     16  O   UNL     1      32.244  -4.608  21.121  0.00  0.00    -0.339 OA
ATOM     17  H   UNL     1      32.086  -4.068  20.355  0.00  0.00    +0.246 HD
ENDBRANCH   3  16
BRANCH   9  18
ATOM     18  C   UNL     1      31.777   0.132  28.071  0.00  0.00    +0.179 C 
BRANCH  18  19
ATOM     19  C   UNL     1      30.837   1.212  28.351  0.00  0.00    +0.089 C 
ATOM     20  N   UNL     1      30.086   2.067  28.566  0.00  0.00    -0.304 NA
ENDBRANCH  18  19
ENDBRANCH   9  18
BRANCH  10  21
ATOM     21  C   UNL     1      34.175   0.542  29.476  0.00  0.00    +0.114 C 
BRANCH  21  22
ATOM     22  O   UNL     1      34.196   1.765  29.943  0.00  0.00    -0.246 OA
ATOM     23  H   UNL     1      34.091   1.745  30.887  0.00  0.00    +0.000 HD
ENDBRANCH  21  22
ENDBRANCH  10  21
TORSDOF 5
ENDMDL
MODEL 9
REMARK minimizedAffinity -5.94382095
REMARK minimizedRMSD -1
REMARK  Name = scaffold
REMARK  6 active torsions:
REMARK  status: ('A' for Active; 'I' for Inactive)
REMARK    1  A    between atoms: C_3  and  O_4
REMARK    2  A    between atoms: C_5  and  C_17
REMARK    3  A    between atoms: C_15  and  C_20
REMARK    4  A    between atoms: C_15  and  C_23
REMARK    5  A    between atoms: C_16  and  C_17
REMARK    6  A    between atoms: C_23  and  O_25
REMARK                            x       y       z     vdW  Elec       q    Type
REMARK                         _______ _______ _______ _____ _____    ______ ____
ROOT
ATOM      1  C   UNL     1      33.261   1.025  26.466  0.00  0.00    -0.024 A 
ATOM      2  C   UNL     1      34.485   1.617  26.789  0.00  0.00    +0.000 A 
ATOM      3  C   UNL     1      34.707   2.117  28.073  0.00  0.00    +0.074 A 
ATOM      4  C   UNL     1      33.671   2.059  29.011  0.00  0.00    +0.008 A 
ATOM      5  C   UNL     1      32.443   1.472  28.681  0.00  0.00    -0.049 A 
ATOM      6  C   UNL     1      31.316   1.540  29.715  0.00  0.00    +0.058 C 
ATOM      7  C   UNL     1      29.946   1.127  29.120  0.00  0.00    +0.018 C 
ATOM      8  C   UNL     1      30.103  -0.223  28.368  0.00  0.00    +0.000 C 
ATOM      9  C   UNL     1      28.751  -0.896  27.948  0.00  0.00    -0.004 C 
ATOM     10  C   UNL     1      28.986  -2.245  27.174  0.00  0.00    +0.006 C 
ATOM     11  C   UNL     1      29.484  -3.393  28.108  0.00  0.00    -0.039 C 
ATOM     12  C   UNL     1      30.002  -2.024  26.013  0.00  0.00    -0.032 C 
ATOM     13  C   UNL     1      31.322  -1.350  26.470  0.00  0.00    +0.006 C 
ATOM     14  C   UNL     1      31.003   0.024  27.120  0.00  0.00    +0.030 C 
ATOM     15  C   UNL     1      32.265   0.854  27.436  0.00  0.00    -0.048 A 
ENDROOT
BRANCH   3  16
ATOM     16  O   UNL     1      35.953   2.666  28.388  0.00  0.00    -0.339 OA
ATOM     17  H   UNL     1      36.041   2.944  29.293  0.00  0.00    +0.246 HD
ENDBRANCH   3  16
BRANCH   9  18
ATOM     18  C   UNL     1      28.054   0.101  26.966  0.00  0.00    +0.179 C 
BRANCH  18  19
ATOM     19  C   UNL     1      26.602  -0.024  26.909  0.00  0.00    +0.089 C 
ATOM     20  N   UNL     1      25.450  -0.132  26.859  0.00  0.00    -0.304 NA
ENDBRANCH  18  19
ENDBRANCH   9  18
BRANCH  10  21
ATOM     21  C   UNL     1      27.693  -2.642  26.478  0.00  0.00    +0.114 C 
BRANCH  21  22
ATOM     22  O   UNL     1      27.125  -3.821  26.466  0.00  0.00    -0.246 OA
ATOM     23  H   UNL     1      26.327  -3.783  25.953  0.00  0.00    +0.000 HD
ENDBRANCH  21  22
ENDBRANCH  10  21
TORSDOF 5
ENDMDL
MODEL 10
REMARK minimizedAffinity -5.71914864
REMARK minimizedRMSD -1
REMARK  Name = scaffold
REMARK  6 active torsions:
REMARK  status: ('A' for Active; 'I' for Inactive)
REMARK    1  A    between atoms: C_3  and  O_4
REMARK    2  A    between atoms: C_5  and  C_17
REMARK    3  A    between atoms: C_15  and  C_20
REMARK    4  A    between atoms: C_15  and  C_23
REMARK    5  A    between atoms: C_16  and  C_17
REMARK    6  A    between atoms: C_23  and  O_25
REMARK                            x       y       z     vdW  Elec       q    Type
REMARK                         _______ _______ _______ _____ _____    ______ ____
ROOT
ATOM      1  C   UNL     1      33.524  -2.831  18.012  0.00  0.00    -0.024 A 
ATOM      2  C   UNL     1      32.861  -3.709  18.873  0.00  0.00    +0.000 A 
ATOM      3  C   UNL     1      33.277  -3.843  20.199  0.00  0.00    +0.074 A 
ATOM      4  C   UNL     1      34.394  -3.122  20.634  0.00  0.00    +0.008 A 
ATOM      5  C   UNL     1      35.061  -2.248  19.767  0.00  0.00    -0.049 A 
ATOM      6  C   UNL     1      36.339  -1.574  20.271  0.00  0.00    +0.058 C 
ATOM      7  C   UNL     1      37.128  -0.880  19.132  0.00  0.00    +0.018 C 
ATOM      8  C   UNL     1      36.159   0.019  18.315  0.00  0.00    +0.000 C 
ATOM      9  C   UNL     1      36.864   0.987  17.304  0.00  0.00    -0.004 C 
ATOM     10  C   UNL     1      35.824   1.848  16.499  0.00  0.00    +0.006 C 
ATOM     11  C   UNL     1      35.151   2.952  17.377  0.00  0.00    -0.039 C 
ATOM     12  C   UNL     1      34.733   0.924  15.877  0.00  0.00    -0.032 C 
ATOM     13  C   UNL     1      34.067  -0.021  16.909  0.00  0.00    +0.006 C 
ATOM     14  C   UNL     1      35.152  -0.911  17.573  0.00  0.00    +0.030 C 
ATOM     15  C   UNL     1      34.565  -2.015  18.476  0.00  0.00    -0.048 A 
ENDROOT
BRANCH   3  16
ATOM     16  O   UNL     1      32.573  -4.695  21.055  0.00  0.00    -0.339 OA
ATOM     17  H   UNL     1      32.890  -4.698  21.951  0.00  0.00    +0.246 HD
ENDBRANCH   3  16
BRANCH   9  18
ATOM     18  C   UNL     1      37.620   0.076  16.284  0.00  0.00    +0.179 C 
BRANCH  18  19
ATOM     19  C   UNL     1      38.959   0.541  15.937  0.00  0.00    +0.089 C 
ATOM     20  N   UNL     1      40.018   0.919  15.660  0.00  0.00    -0.304 NA
ENDBRANCH  18  19
ENDBRANCH   9  18
BRANCH  10  21
ATOM     21  C   UNL     1      36.525   2.469  15.301  0.00  0.00    +0.114 C 
BRANCH  21  22
ATOM     22  O   UNL     1      36.747   3.740  15.079  0.00  0.00    -0.246 OA
ATOM     23  H   UNL     1      37.205   3.842  14.253  0.00  0.00    +0.000 HD
ENDBRANCH  21  22
ENDBRANCH  10  21
TORSDOF 5
ENDMDL
MODEL 11
REMARK minimizedAffinity -5.62778997
REMARK minimizedRMSD -1
REMARK  Name = scaffold
REMARK  6 active torsions:
REMARK  status: ('A' for Active; 'I' for Inactive)
REMARK    1  A    between atoms: C_3  and  O_4
REMARK    2  A    between atoms: C_5  and  C_17
REMARK    3  A    between atoms: C_15  and  C_20
REMARK    4  A    between atoms: C_15  and  C_23
REMARK    5  A    between atoms: C_16  and  C_17
REMARK    6  A    between atoms: C_23  and  O_25
REMARK                            x       y       z     vdW  Elec       q    Type
REMARK                         _______ _______ _______ _____ _____    ______ ____
ROOT
ATOM      1  C   UNL     1      31.295  -2.858  25.305  0.00  0.00    -0.024 A 
ATOM      2  C   UNL     1      32.443  -3.651  25.238  0.00  0.00    +0.000 A 
ATOM      3  C   UNL     1      33.255  -3.808  26.362  0.00  0.00    +0.074 A 
ATOM      4  C   UNL     1      32.928  -3.122  27.536  0.00  0.00    +0.008 A 
ATOM      5  C   UNL     1      31.780  -2.322  27.597  0.00  0.00    -0.049 A 
ATOM      6  C   UNL     1      31.537  -1.513  28.873  0.00  0.00    +0.058 C 
ATOM      7  C   UNL     1      30.414  -0.459  28.698  0.00  0.00    +0.018 C 
ATOM      8  C   UNL     1      29.166  -1.143  28.076  0.00  0.00    +0.000 C 
ATOM      9  C   UNL     1      27.867  -0.266  28.091  0.00  0.00    -0.004 C 
ATOM     10  C   UNL     1      26.652  -1.012  27.427  0.00  0.00    +0.006 C 
ATOM     11  C   UNL     1      26.104  -2.174  28.316  0.00  0.00    -0.039 C 
ATOM     12  C   UNL     1      27.062  -1.560  26.027  0.00  0.00    -0.032 C 
ATOM     13  C   UNL     1      28.355  -2.416  26.056  0.00  0.00    +0.006 C 
ATOM     14  C   UNL     1      29.526  -1.565  26.620  0.00  0.00    +0.030 C 
ATOM     15  C   UNL     1      30.895  -2.269  26.511  0.00  0.00    -0.048 A 
ENDROOT
BRANCH   3  16
ATOM     16  O   UNL     1      34.377  -4.640  26.286  0.00  0.00    -0.339 OA
ATOM     17  H   UNL     1      34.853  -4.730  27.104  0.00  0.00    +0.246 HD
ENDBRANCH   3  16
BRANCH   9  18
ATOM     18  C   UNL     1      28.183   0.995  27.224  0.00  0.00    +0.179 C 
BRANCH  18  19
ATOM     19  C   UNL     1      28.775   2.104  27.965  0.00  0.00    +0.089 C 
ATOM     20  N   UNL     1      29.239   2.982  28.561  0.00  0.00    -0.304 NA
ENDBRANCH  18  19
ENDBRANCH   9  18
BRANCH  10  21
ATOM     21  C   UNL     1      25.557   0.002  27.133  0.00  0.00    +0.114 C 
BRANCH  21  22
ATOM     22  O   UNL     1      24.313  -0.243  26.804  0.00  0.00    -0.246 OA
ATOM     23  H   UNL     1      23.852   0.578  26.679  0.00  0.00    +0.000 HD
ENDBRANCH  21  22
ENDBRANCH  10  21
TORSDOF 5
ENDMDL
MODEL 12
REMARK minimizedAffinity -5.30572319
REMARK minimizedRMSD -1
REMARK  Name = scaffold
REMARK  6 active torsions:
REMARK  status: ('A' for Active; 'I' for Inactive)
REMARK    1  A    between atoms: C_3  and  O_4
REMARK    2  A    between atoms: C_5  and  C_17
REMARK    3  A    between atoms: C_15  and  C_20
REMARK    4  A    between atoms: C_15  and  C_23
REMARK    5  A    between atoms: C_16  and  C_17
REMARK    6  A    between atoms: C_23  and  O_25
REMARK                            x       y       z     vdW  Elec       q    Type
REMARK                         _______ _______ _______ _____ _____    ______ ____
ROOT
ATOM      1  C   UNL     1      32.777  -3.871  25.998  0.00  0.00    -0.024 A 
ATOM      2  C   UNL     1      32.428  -3.641  27.331  0.00  0.00    +0.000 A 
ATOM      3  C   UNL     1      31.857  -2.424  27.708  0.00  0.00    +0.074 A 
ATOM      4  C   UNL     1      31.685  -1.428  26.742  0.00  0.00    +0.008 A 
ATOM      5  C   UNL     1      32.043  -1.659  25.408  0.00  0.00    -0.049 A 
ATOM      6  C   UNL     1      31.933  -0.493  24.424  0.00  0.00    +0.058 C 
ATOM      7  C   UNL     1      32.631  -0.794  23.073  0.00  0.00    +0.018 C 
ATOM      8  C   UNL     1      32.153  -2.177  22.550  0.00  0.00    +0.000 C 
ATOM      9  C   UNL     1      32.565  -2.491  21.070  0.00  0.00    -0.004 C 
ATOM     10  C   UNL     1      32.068  -3.912  20.616  0.00  0.00    +0.006 C 
ATOM     11  C   UNL     1      30.522  -3.964  20.395  0.00  0.00    -0.039 C 
ATOM     12  C   UNL     1      32.493  -4.986  21.662  0.00  0.00    -0.032 C 
ATOM     13  C   UNL     1      32.073  -4.633  23.112  0.00  0.00    +0.006 C 
ATOM     14  C   UNL     1      32.699  -3.270  23.516  0.00  0.00    +0.030 C 
ATOM     15  C   UNL     1      32.494  -2.924  25.005  0.00  0.00    -0.048 A 
ENDROOT
BRANCH   3  16
ATOM     16  O   UNL     1      31.476  -2.230  29.040  0.00  0.00    -0.339 OA
ATOM     17  H   UNL     1      31.054  -1.395  29.208  0.00  0.00    +0.246 HD
ENDBRANCH   3  16
BRANCH   9  18
ATOM     18  C   UNL     1      34.128  -2.503  21.047  0.00  0.00    +0.179 C 
BRANCH  18  19
ATOM     19  C   UNL     1      34.719  -1.797  19.915  0.00  0.00    +0.089 C 
ATOM     20  N   UNL     1      35.186  -1.244  19.011  0.00  0.00    -0.304 NA
ENDBRANCH  18  19
ENDBRANCH   9  18
BRANCH  10  21
ATOM     21  C   UNL     1      32.806  -4.306  19.345  0.00  0.00    +0.114 C 
BRANCH  21  22
ATOM     22  O   UNL     1      32.573  -3.885  18.127  0.00  0.00    -0.246 OA
ATOM     23  H   UNL     1      33.186  -4.296  17.528  0.00  0.00    +0.000 HD
ENDBRANCH  21  22
ENDBRANCH  10  21
TORSDOF 5
ENDMDL
MODEL 13
REMARK minimizedAffinity -4.4878931
REMARK minimizedRMSD -1
REMARK  Name = scaffold
REMARK  6 active torsions:
REMARK  status: ('A' for Active; 'I' for Inactive)
REMARK    1  A    between atoms: C_3  and  O_4
REMARK    2  A    between atoms: C_5  and  C_17
REMARK    3  A    between atoms: C_15  and  C_20
REMARK    4  A    between atoms: C_15  and  C_23
REMARK    5  A    between atoms: C_16  and  C_17
REMARK    6  A    between atoms: C_23  and  O_25
REMARK                            x       y       z     vdW  Elec       q    Type
REMARK                         _______ _______ _______ _____ _____    ______ ____
ROOT
ATOM      1  C   UNL     1      33.969  -1.845  20.595  0.00  0.00    -0.024 A 
ATOM      2  C   UNL     1      34.056  -2.105  19.225  0.00  0.00    +0.000 A 
ATOM      3  C   UNL     1      33.414  -3.217  18.678  0.00  0.00    +0.074 A 
ATOM      4  C   UNL     1      32.725  -4.088  19.529  0.00  0.00    +0.008 A 
ATOM      5  C   UNL     1      32.645  -3.827  20.903  0.00  0.00    -0.049 A 
ATOM      6  C   UNL     1      31.972  -4.874  21.793  0.00  0.00    +0.058 C 
ATOM      7  C   UNL     1      32.213  -4.609  23.301  0.00  0.00    +0.018 C 
ATOM      8  C   UNL     1      31.877  -3.125  23.617  0.00  0.00    +0.000 C 
ATOM      9  C   UNL     1      31.815  -2.783  25.146  0.00  0.00    -0.004 C 
ATOM     10  C   UNL     1      31.492  -1.264  25.390  0.00  0.00    +0.006 C 
ATOM     11  C   UNL     1      30.008  -0.905  25.057  0.00  0.00    -0.039 C 
ATOM     12  C   UNL     1      32.457  -0.371  24.553  0.00  0.00    -0.032 C 
ATOM     13  C   UNL     1      32.494  -0.748  23.049  0.00  0.00    +0.006 C 
ATOM     14  C   UNL     1      32.930  -2.230  22.897  0.00  0.00    +0.030 C 
ATOM     15  C   UNL     1      33.179  -2.644  21.431  0.00  0.00    -0.048 A 
ENDROOT
BRANCH   3  16
ATOM     16  O   UNL     1      33.479  -3.436  17.299  0.00  0.00    -0.339 OA
ATOM     17  H   UNL     1      32.979  -4.188  16.998  0.00  0.00    +0.246 HD
ENDBRANCH   3  16
BRANCH   9  18
ATOM     18  C   UNL     1      33.243  -3.065  25.713  0.00  0.00    +0.179 C 
BRANCH  18  19
ATOM     19  C   UNL     1      33.313  -4.187  26.642  0.00  0.00    +0.089 C 
ATOM     20  N   UNL     1      33.366  -5.084  27.373  0.00  0.00    -0.304 NA
ENDBRANCH  18  19
ENDBRANCH   9  18
BRANCH  10  21
ATOM     21  C   UNL     1      31.816  -0.921  26.837  0.00  0.00    +0.114 C 
BRANCH  21  22
ATOM     22  O   UNL     1      32.352   0.183  27.292  0.00  0.00    -0.246 OA
ATOM     23  H   UNL     1      32.441   0.125  28.236  0.00  0.00    +0.000 HD
ENDBRANCH  21  22
ENDBRANCH  10  21
TORSDOF 5
ENDMDL
MODEL 14
REMARK minimizedAffinity -4.41701698
REMARK minimizedRMSD -1
REMARK  Name = scaffold
REMARK  6 active torsions:
REMARK  status: ('A' for Active; 'I' for Inactive)
REMARK    1  A    between atoms: C_3  and  O_4
REMARK    2  A    between atoms: C_5  and  C_17
REMARK    3  A    between atoms: C_15  and  C_20
REMARK    4  A    between atoms: C_15  and  C_23
REMARK    5  A    between atoms: C_16  and  C_17
REMARK    6  A    between atoms: C_23  and  O_25
REMARK                            x       y       z     vdW  Elec       q    Type
REMARK                         _______ _______ _______ _____ _____    ______ ____
ROOT
ATOM      1  C   UNL     1      33.742   1.814  27.359  0.00  0.00    -0.024 A 
ATOM      2  C   UNL     1      34.636   2.315  28.309  0.00  0.00    +0.000 A 
ATOM      3  C   UNL     1      34.969   1.555  29.431  0.00  0.00    +0.074 A 
ATOM      4  C   UNL     1      34.358   0.310  29.612  0.00  0.00    +0.008 A 
ATOM      5  C   UNL     1      33.457  -0.187  28.660  0.00  0.00    -0.049 A 
ATOM      6  C   UNL     1      32.741  -1.503  28.970  0.00  0.00    +0.058 C 
ATOM      7  C   UNL     1      31.571  -1.782  27.993  0.00  0.00    +0.018 C 
ATOM      8  C   UNL     1      32.073  -1.604  26.534  0.00  0.00    +0.000 C 
ATOM      9  C   UNL     1      31.077  -2.114  25.435  0.00  0.00    -0.004 C 
ATOM     10  C   UNL     1      31.640  -1.883  23.986  0.00  0.00    +0.006 C 
ATOM     11  C   UNL     1      32.814  -2.852  23.637  0.00  0.00    -0.039 C 
ATOM     12  C   UNL     1      32.103  -0.404  23.821  0.00  0.00    -0.032 C 
ATOM     13  C   UNL     1      33.080   0.061  24.931  0.00  0.00    +0.006 C 
ATOM     14  C   UNL     1      32.401  -0.096  26.319  0.00  0.00    +0.030 C 
ATOM     15  C   UNL     1      33.223   0.517  27.471  0.00  0.00    -0.048 A 
ENDROOT
BRANCH   3  16
ATOM     16  O   UNL     1      35.897   2.057  30.348  0.00  0.00    -0.339 OA
ATOM     17  H   UNL     1      36.104   1.463  31.061  0.00  0.00    +0.246 HD
ENDBRANCH   3  16
BRANCH   9  18
ATOM     18  C   UNL     1      29.783  -1.251  25.587  0.00  0.00    +0.179 C 
BRANCH  18  19
ATOM     19  C   UNL     1      28.704  -1.905  26.321  0.00  0.00    +0.089 C 
ATOM     20  N   UNL     1      27.845  -2.416  26.906  0.00  0.00    -0.304 NA
ENDBRANCH  18  19
ENDBRANCH   9  18
BRANCH  10  21
ATOM     21  C   UNL     1      30.502  -2.039  22.988  0.00  0.00    +0.114 C 
BRANCH  21  22
ATOM     22  O   UNL     1      30.541  -2.632  21.822  0.00  0.00    -0.246 OA
ATOM     23  H   UNL     1      29.686  -2.580  21.411  0.00  0.00    +0.000 HD
ENDBRANCH  21  22
ENDBRANCH  10  21
TORSDOF 5
ENDMDL
MODEL 15
REMARK minimizedAffinity -2.88393998
REMARK minimizedRMSD -1
REMARK  Name = scaffold
REMARK  6 active torsions:
REMARK  status: ('A' for Active; 'I' for Inactive)
REMARK    1  A    between atoms: C_3  and  O_4
REMARK    2  A    between atoms: C_5  and  C_17
REMARK    3  A    between atoms: C_15  and  C_20
REMARK    4  A    between atoms: C_15  and  C_23
REMARK    5  A    between atoms: C_16  and  C_17
REMARK    6  A    between atoms: C_23  and  O_25
REMARK                            x       y       z     vdW  Elec       q    Type
REMARK                         _______ _______ _______ _____ _____    ______ ____
ROOT
ATOM      1  C   UNL     1      34.169  -2.948  15.745  0.00  0.00    -0.024 A 
ATOM      2  C   UNL     1      33.008  -3.673  16.025  0.00  0.00    +0.000 A 
ATOM      3  C   UNL     1      32.254  -3.381  17.163  0.00  0.00    +0.074 A 
ATOM      4  C   UNL     1      32.706  -2.388  18.039  0.00  0.00    +0.008 A 
ATOM      5  C   UNL     1      33.874  -1.668  17.758  0.00  0.00    -0.049 A 
ATOM      6  C   UNL     1      34.373  -0.674  18.809  0.00  0.00    +0.058 C 
ATOM      7  C   UNL     1      35.810  -0.174  18.512  0.00  0.00    +0.018 C 
ATOM      8  C   UNL     1      35.891   0.296  17.034  0.00  0.00    +0.000 C 
ATOM      9  C   UNL     1      37.202   1.074  16.669  0.00  0.00    -0.004 C 
ATOM     10  C   UNL     1      37.225   1.500  15.155  0.00  0.00    +0.006 C 
ATOM     11  C   UNL     1      36.226   2.659  14.843  0.00  0.00    -0.039 C 
ATOM     12  C   UNL     1      36.914   0.270  14.250  0.00  0.00    -0.032 C 
ATOM     13  C   UNL     1      35.614  -0.475  14.649  0.00  0.00    +0.006 C 
ATOM     14  C   UNL     1      35.725  -0.956  16.122  0.00  0.00    +0.030 C 
ATOM     15  C   UNL     1      34.559  -1.871  16.552  0.00  0.00    -0.048 A 
ENDROOT
BRANCH   3  16
ATOM     16  O   UNL     1      31.073  -4.089  17.403  0.00  0.00    -0.339 OA
ATOM     17  H   UNL     1      30.594  -3.802  18.172  0.00  0.00    +0.246 HD
ENDBRANCH   3  16
BRANCH   9  18
ATOM     18  C   UNL     1      38.381   0.075  16.901  0.00  0.00    +0.179 C 
BRANCH  18  19
ATOM     19  C   UNL     1      38.490  -0.421  18.269  0.00  0.00    +0.089 C 
ATOM     20  N   UNL     1      38.583  -0.822  19.352  0.00  0.00    -0.304 NA
ENDBRANCH  18  19
ENDBRANCH   9  18
BRANCH  10  21
ATOM     21  C   UNL     1      38.644   1.899  14.781  0.00  0.00    +0.114 C 
BRANCH  21  22
ATOM     22  O   UNL     1      39.392   2.810  15.350  0.00  0.00    -0.246 OA
ATOM     23  H   UNL     1      40.233   2.849  14.912  0.00  0.00    +0.000 HD
ENDBRANCH  21  22
ENDBRANCH  10  21
TORSDOF 5
ENDMDL
MODEL 16
REMARK minimizedAffinity -2.06770682
REMARK minimizedRMSD -1
REMARK  Name = scaffold
REMARK  6 active torsions:
REMARK  status: ('A' for Active; 'I' for Inactive)
REMARK    1  A    between atoms: C_3  and  O_4
REMARK    2  A    between atoms: C_5  and  C_17
REMARK    3  A    between atoms: C_15  and  C_20
REMARK    4  A    between atoms: C_15  and  C_23
REMARK    5  A    between atoms: C_16  and  C_17
REMARK    6  A    between atoms: C_23  and  O_25
REMARK                            x       y       z     vdW  Elec       q    Type
REMARK                         _______ _______ _______ _____ _____    ______ ____
ROOT
ATOM      1  C   UNL     1      32.318  -2.823  20.810  0.00  0.00    -0.024 A 
ATOM      2  C   UNL     1      31.116  -3.526  20.695  0.00  0.00    +0.000 A 
ATOM      3  C   UNL     1      30.633  -3.892  19.438  0.00  0.00    +0.074 A 
ATOM      4  C   UNL     1      31.344  -3.501  18.298  0.00  0.00    +0.008 A 
ATOM      5  C   UNL     1      32.544  -2.790  18.417  0.00  0.00    -0.049 A 
ATOM      6  C   UNL     1      33.215  -2.297  17.133  0.00  0.00    +0.058 C 
ATOM      7  C   UNL     1      34.355  -1.284  17.415  0.00  0.00    +0.018 C 
ATOM      8  C   UNL     1      35.301  -1.871  18.498  0.00  0.00    +0.000 C 
ATOM      9  C   UNL     1      36.642  -1.081  18.688  0.00  0.00    -0.004 C 
ATOM     10  C   UNL     1      37.538  -1.717  19.813  0.00  0.00    +0.006 C 
ATOM     11  C   UNL     1      38.180  -3.072  19.374  0.00  0.00    -0.039 C 
ATOM     12  C   UNL     1      36.701  -1.919  21.112  0.00  0.00    -0.032 C 
ATOM     13  C   UNL     1      35.382  -2.698  20.878  0.00  0.00    +0.006 C 
ATOM     14  C   UNL     1      34.511  -1.941  19.839  0.00  0.00    +0.030 C 
ATOM     15  C   UNL     1      33.096  -2.537  19.681  0.00  0.00    -0.048 A 
ENDROOT
BRANCH   3  16
ATOM     16  O   UNL     1      29.450  -4.632  19.347  0.00  0.00    -0.339 OA
ATOM     17  H   UNL     1      29.210  -4.880  18.461  0.00  0.00    +0.246 HD
ENDBRANCH   3  16
BRANCH   9  18
ATOM     18  C   UNL     1      36.239   0.355  19.154  0.00  0.00    +0.179 C 
BRANCH  18  19
ATOM     19  C   UNL     1      36.090   1.321  18.072  0.00  0.00    +0.089 C 
ATOM     20  N   UNL     1      35.981   2.089  17.211  0.00  0.00    -0.304 NA
ENDBRANCH  18  19
ENDBRANCH   9  18
BRANCH  10  21
ATOM     21  C   UNL     1      38.614  -0.715  20.206  0.00  0.00    +0.114 C 
BRANCH  21  22
ATOM     22  O   UNL     1      39.911  -0.890  20.181  0.00  0.00    -0.246 OA
ATOM     23  H   UNL     1      40.343  -0.098  20.479  0.00  0.00    +0.000 HD
ENDBRANCH  21  22
ENDBRANCH  10  21
TORSDOF 5
ENDMDL
MODEL 17
REMARK minimizedAffinity -0.863466442
REMARK minimizedRMSD -1
REMARK  Name = scaffold
REMARK  6 active torsions:
REMARK  status: ('A' for Active; 'I' for Inactive)
REMARK    1  A    between atoms: C_3  and  O_4
REMARK    2  A    between atoms: C_5  and  C_17
REMARK    3  A    between atoms: C_15  and  C_20
REMARK    4  A    between atoms: C_15  and  C_23
REMARK    5  A    between atoms: C_16  and  C_17
REMARK    6  A    between atoms: C_23  and  O_25
REMARK                            x       y       z     vdW  Elec       q    Type
REMARK                         _______ _______ _______ _____ _____    ______ ____
ROOT
ATOM      1  C   UNL     1      35.385  -2.787  18.527  0.00  0.00    -0.024 A 
ATOM      2  C   UNL     1      35.921  -2.306  17.329  0.00  0.00    +0.000 A 
ATOM      3  C   UNL     1      35.077  -1.858  16.312  0.00  0.00    +0.074 A 
ATOM      4  C   UNL     1      33.693  -1.942  16.493  0.00  0.00    +0.008 A 
ATOM      5  C   UNL     1      33.160  -2.431  17.693  0.00  0.00    -0.049 A 
ATOM      6  C   UNL     1      31.641  -2.601  17.785  0.00  0.00    +0.058 C 
ATOM      7  C   UNL     1      31.215  -3.418  19.032  0.00  0.00    +0.018 C 
ATOM      8  C   UNL     1      31.915  -2.831  20.289  0.00  0.00    +0.000 C 
ATOM      9  C   UNL     1      31.372  -3.381  21.653  0.00  0.00    -0.004 C 
ATOM     10  C   UNL     1      32.139  -2.762  22.878  0.00  0.00    +0.006 C 
ATOM     11  C   UNL     1      31.771  -1.263  23.121  0.00  0.00    -0.039 C 
ATOM     12  C   UNL     1      33.677  -2.906  22.673  0.00  0.00    -0.032 C 
ATOM     13  C   UNL     1      34.171  -2.357  21.310  0.00  0.00    +0.006 C 
ATOM     14  C   UNL     1      33.444  -3.103  20.158  0.00  0.00    +0.030 C 
ATOM     15  C   UNL     1      34.005  -2.759  18.762  0.00  0.00    -0.048 A 
ENDROOT
BRANCH   3  16
ATOM     16  O   UNL     1      35.634  -1.341  15.138  0.00  0.00    -0.339 OA
ATOM     17  H   UNL     1      34.996  -1.016  14.513  0.00  0.00    +0.246 HD
ENDBRANCH   3  16
BRANCH   9  18
ATOM     18  C   UNL     1      31.650  -4.919  21.644  0.00  0.00    +0.179 C 
BRANCH  18  19
ATOM     19  C   UNL     1      32.897  -5.303  20.991  0.00  0.00    +0.089 C 
ATOM     20  N   UNL     1      33.882  -5.609  20.465  0.00  0.00    -0.304 NA
ENDBRANCH  18  19
ENDBRANCH   9  18
BRANCH  10  21
ATOM     21  C   UNL     1      31.840  -3.595  24.115  0.00  0.00    +0.114 C 
BRANCH  21  22
ATOM     22  O   UNL     1      32.702  -4.155  24.925  0.00  0.00    -0.246 OA
ATOM     23  H   UNL     1      32.237  -4.615  25.614  0.00  0.00    +0.000 HD
ENDBRANCH  21  22
ENDBRANCH  10  21
TORSDOF 5
ENDMDL
MODEL 18
REMARK minimizedAffinity 0.627178848
REMARK minimizedRMSD -1
REMARK  Name = scaffold
REMARK  6 active torsions:
REMARK  status: ('A' for Active; 'I' for Inactive)
REMARK    1  A    between atoms: C_3  and  O_4
REMARK    2  A    between atoms: C_5  and  C_17
REMARK    3  A    between atoms: C_15  and  C_20
REMARK    4  A    between atoms: C_15  and  C_23
REMARK    5  A    between atoms: C_16  and  C_17
REMARK    6  A    between atoms: C_23  and  O_25
REMARK                            x       y       z     vdW  Elec       q    Type
REMARK                         _______ _______ _______ _____ _____    ______ ____
ROOT
ATOM      1  C   UNL     1      32.038  -4.764  22.313  0.00  0.00    -0.024 A 
ATOM      2  C   UNL     1      31.859  -4.696  23.697  0.00  0.00    +0.000 A 
ATOM      3  C   UNL     1      32.328  -3.594  24.414  0.00  0.00    +0.074 A 
ATOM      4  C   UNL     1      33.020  -2.588  23.733  0.00  0.00    +0.008 A 
ATOM      5  C   UNL     1      33.205  -2.663  22.346  0.00  0.00    -0.049 A 
ATOM      6  C   UNL     1      34.064  -1.587  21.679  0.00  0.00    +0.058 C 
ATOM      7  C   UNL     1      34.430  -1.949  20.216  0.00  0.00    +0.018 C 
ATOM      8  C   UNL     1      33.140  -2.362  19.456  0.00  0.00    +0.000 C 
ATOM      9  C   UNL     1      33.313  -2.493  17.903  0.00  0.00    -0.004 C 
ATOM     10  C   UNL     1      31.976  -2.934  17.203  0.00  0.00    +0.006 C 
ATOM     11  C   UNL     1      30.909  -1.794  17.176  0.00  0.00    -0.039 C 
ATOM     12  C   UNL     1      31.393  -4.194  17.911  0.00  0.00    -0.032 C 
ATOM     13  C   UNL     1      31.245  -4.024  19.444  0.00  0.00    +0.006 C 
ATOM     14  C   UNL     1      32.631  -3.702  20.066  0.00  0.00    +0.030 C 
ATOM     15  C   UNL     1      32.621  -3.702  21.609  0.00  0.00    -0.048 A 
ENDROOT
BRANCH   3  16
ATOM     16  O   UNL     1      32.101  -3.526  25.792  0.00  0.00    -0.339 OA
ATOM     17  H   UNL     1      32.411  -2.725  26.200  0.00  0.00    +0.246 HD
ENDBRANCH   3  16
BRANCH   9  18
ATOM     18  C   UNL     1      34.366  -3.625  17.677  0.00  0.00    +0.179 C 
BRANCH  18  19
ATOM     19  C   UNL     1      35.477  -3.252  16.808  0.00  0.00    +0.089 C 
ATOM     20  N   UNL     1      36.352  -2.956  16.110  0.00  0.00    -0.304 NA
ENDBRANCH  18  19
ENDBRANCH   9  18
BRANCH  10  21
ATOM     21  C   UNL     1      32.295  -3.404  15.791  0.00  0.00    +0.114 C 
BRANCH  21  22
ATOM     22  O   UNL     1      33.350  -3.110  15.074  0.00  0.00    -0.246 OA
ATOM     23  H   UNL     1      33.289  -3.541  14.230  0.00  0.00    +0.000 HD
ENDBRANCH  21  22
ENDBRANCH  10  21
TORSDOF 5
ENDMDL
