MODEL 1
REMARK minimizedAffinity -6.11368847
REMARK minimizedRMSD -1
REMARK  Name = 303
REMARK  5 active torsions:
REMARK  status: ('A' for Active; 'I' for Inactive)
REMARK    1  A    between atoms: C_3  and  O_4
REMARK    2  A    between atoms: C_5  and  C_17
REMARK    3  A    between atoms: C_15  and  C_20
REMARK    4  A    between atoms: C_15  and  C_23
REMARK    5  A    between atoms: C_16  and  C_17
REMARK                            x       y       z     vdW  Elec       q    Type
REMARK                         _______ _______ _______ _____ _____    ______ ____
ROOT
ATOM      1  C   UNL     1      29.449   0.668  26.130  0.00  0.00    -0.024 A 
ATOM      2  C   UNL     1      28.113   1.057  26.255  0.00  0.00    +0.000 A 
ATOM      3  C   UNL     1      27.229   0.301  27.026  0.00  0.00    +0.074 A 
ATOM      4  C   UNL     1      27.696  -0.863  27.645  0.00  0.00    +0.008 A 
ATOM      5  C   UNL     1      29.035  -1.255  27.517  0.00  0.00    -0.049 A 
ATOM      6  C   UNL     1      29.445  -2.589  28.150  0.00  0.00    +0.058 C 
ATOM      7  C   UNL     1      30.843  -3.049  27.669  0.00  0.00    +0.018 C 
ATOM      8  C   UNL     1      31.836  -1.869  27.818  0.00  0.00    +0.000 C 
ATOM      9  C   UNL     1      33.346  -2.282  27.755  0.00  0.00    -0.004 C 
ATOM     10  C   UNL     1      34.261  -1.032  27.997  0.00  0.00    +0.006 C 
ATOM     11  C   UNL     1      34.214  -0.512  29.470  0.00  0.00    -0.039 C 
ATOM     12  C   UNL     1      33.864   0.104  27.007  0.00  0.00    -0.032 C 
ATOM     13  C   UNL     1      32.357   0.481  27.057  0.00  0.00    +0.006 C 
ATOM     14  C   UNL     1      31.459  -0.761  26.793  0.00  0.00    +0.030 C 
ATOM     15  C   UNL     1      29.947  -0.444  26.822  0.00  0.00    -0.048 A 
ENDROOT
BRANCH  10  16
ATOM     16  C   UNL     1      35.718  -1.389  27.765  0.00  0.00    +0.114 A 
ATOM     17  N   UNL     1      36.298  -1.424  26.593  0.00  0.00    -0.246 N 
ATOM     18  C   UNL     1      37.585  -1.782  26.815  0.00  0.00    +0.109 A 
ATOM     19  C   UNL     1      37.739  -1.953  28.181  0.00  0.00    +0.090 A 
ATOM     20  C   UNL     1      38.943  -2.322  28.774  0.00  0.00    +0.030 A 
ATOM     21  C   UNL     1      40.018  -2.515  27.894  0.00  0.00    -0.002 A 
ATOM     22  C   UNL     1      39.872  -2.347  26.505  0.00  0.00    +0.007 A 
ATOM     23  C   UNL     1      38.647  -1.975  25.931  0.00  0.00    +0.037 A 
ATOM     24  H   UNL     1      35.869  -1.220  25.680  0.00  0.00    +0.235 HD
ATOM     25  N   UNL     1      36.530  -1.690  28.694  0.00  0.00    -0.247 NA
ENDBRANCH  10  16
BRANCH   3  26
ATOM     26  O   UNL     1      25.902   0.720  27.157  0.00  0.00    -0.339 OA
ATOM     27  H   UNL     1      25.354   0.134  27.666  0.00  0.00    +0.246 HD
ENDBRANCH   3  26
BRANCH   9  28
ATOM     28  C   UNL     1      33.732  -3.059  26.454  0.00  0.00    +0.179 C 
BRANCH  28  29
ATOM     29  C   UNL     1      32.924  -2.663  25.306  0.00  0.00    +0.089 C 
ATOM     30  N   UNL     1      32.285  -2.350  24.393  0.00  0.00    -0.304 NA
ENDBRANCH  28  29
ENDBRANCH   9  28
TORSDOF 4
ENDMDL
MODEL 2
REMARK minimizedAffinity -6.10733223
REMARK minimizedRMSD -1
REMARK  Name = 303
REMARK  5 active torsions:
REMARK  status: ('A' for Active; 'I' for Inactive)
REMARK    1  A    between atoms: C_3  and  O_4
REMARK    2  A    between atoms: C_5  and  C_17
REMARK    3  A    between atoms: C_15  and  C_20
REMARK    4  A    between atoms: C_15  and  C_23
REMARK    5  A    between atoms: C_16  and  C_17
REMARK                            x       y       z     vdW  Elec       q    Type
REMARK                         _______ _______ _______ _____ _____    ______ ____
ROOT
ATOM      1  C   UNL     1      27.570  -1.652  28.183  0.00  0.00    -0.024 A 
ATOM      2  C   UNL     1      26.195  -1.585  27.939  0.00  0.00    +0.000 A 
ATOM      3  C   UNL     1      25.658  -0.508  27.234  0.00  0.00    +0.074 A 
ATOM      4  C   UNL     1      26.511   0.512  26.802  0.00  0.00    +0.008 A 
ATOM      5  C   UNL     1      27.888   0.448  27.050  0.00  0.00    -0.049 A 
ATOM      6  C   UNL     1      28.742   1.648  26.625  0.00  0.00    +0.058 C 
ATOM      7  C   UNL     1      30.163   1.588  27.233  0.00  0.00    +0.018 C 
ATOM      8  C   UNL     1      30.759   0.181  26.976  0.00  0.00    +0.000 C 
ATOM      9  C   UNL     1      32.310   0.089  27.170  0.00  0.00    -0.004 C 
ATOM     10  C   UNL     1      32.819  -1.349  26.807  0.00  0.00    +0.006 C 
ATOM     11  C   UNL     1      32.748  -1.657  25.277  0.00  0.00    -0.039 C 
ATOM     12  C   UNL     1      32.007  -2.407  27.613  0.00  0.00    -0.032 C 
ATOM     13  C   UNL     1      30.468  -2.283  27.437  0.00  0.00    +0.006 C 
ATOM     14  C   UNL     1      29.972  -0.861  27.821  0.00  0.00    +0.030 C 
ATOM     15  C   UNL     1      28.443  -0.682  27.673  0.00  0.00    -0.048 A 
ENDROOT
BRANCH  10  16
ATOM     16  C   UNL     1      34.288  -1.495  27.158  0.00  0.00    +0.114 A 
ATOM     17  N   UNL     1      34.758  -1.563  28.377  0.00  0.00    -0.246 N 
ATOM     18  C   UNL     1      36.102  -1.689  28.262  0.00  0.00    +0.109 A 
ATOM     19  C   UNL     1      36.402  -1.698  26.909  0.00  0.00    +0.090 A 
ATOM     20  C   UNL     1      37.698  -1.818  26.416  0.00  0.00    +0.030 A 
ATOM     21  C   UNL     1      38.708  -1.931  27.383  0.00  0.00    -0.002 A 
ATOM     22  C   UNL     1      38.413  -1.920  28.758  0.00  0.00    +0.007 A 
ATOM     23  C   UNL     1      37.098  -1.798  29.231  0.00  0.00    +0.037 A 
ATOM     24  H   UNL     1      34.221  -1.528  29.254  0.00  0.00    +0.235 HD
ATOM     25  N   UNL     1      35.218  -1.573  26.297  0.00  0.00    -0.247 NA
ENDBRANCH  10  16
BRANCH   3  26
ATOM     26  O   UNL     1      24.284  -0.472  26.981  0.00  0.00    -0.339 OA
ATOM     27  H   UNL     1      23.988   0.310  26.529  0.00  0.00    +0.246 HD
ENDBRANCH   3  26
BRANCH   9  28
ATOM     28  C   UNL     1      32.796   0.554  28.582  0.00  0.00    +0.179 C 
BRANCH  28  29
ATOM     29  C   UNL     1      33.724   1.677  28.513  0.00  0.00    +0.089 C 
ATOM     30  N   UNL     1      34.463   2.566  28.456  0.00  0.00    -0.304 NA
ENDBRANCH  28  29
ENDBRANCH   9  28
TORSDOF 4
ENDMDL
MODEL 3
REMARK minimizedAffinity -5.35432243
REMARK minimizedRMSD -1
REMARK  Name = 303
REMARK  5 active torsions:
REMARK  status: ('A' for Active; 'I' for Inactive)
REMARK    1  A    between atoms: C_3  and  O_4
REMARK    2  A    between atoms: C_5  and  C_17
REMARK    3  A    between atoms: C_15  and  C_20
REMARK    4  A    between atoms: C_15  and  C_23
REMARK    5  A    between atoms: C_16  and  C_17
REMARK                            x       y       z     vdW  Elec       q    Type
REMARK                         _______ _______ _______ _____ _____    ______ ____
ROOT
ATOM      1  C   UNL     1      29.571   0.033  26.488  0.00  0.00    -0.024 A 
ATOM      2  C   UNL     1      28.332   0.672  26.388  0.00  0.00    +0.000 A 
ATOM      3  C   UNL     1      27.911   1.548  27.388  0.00  0.00    +0.074 A 
ATOM      4  C   UNL     1      28.734   1.754  28.499  0.00  0.00    +0.008 A 
ATOM      5  C   UNL     1      29.974   1.111  28.602  0.00  0.00    -0.049 A 
ATOM      6  C   UNL     1      30.775   1.318  29.892  0.00  0.00    +0.058 C 
ATOM      7  C   UNL     1      31.950   0.318  30.008  0.00  0.00    +0.018 C 
ATOM      8  C   UNL     1      32.748   0.329  28.680  0.00  0.00    +0.000 C 
ATOM      9  C   UNL     1      34.173  -0.316  28.776  0.00  0.00    -0.004 C 
ATOM     10  C   UNL     1      34.924  -0.179  27.406  0.00  0.00    +0.006 C 
ATOM     11  C   UNL     1      35.344   1.290  27.080  0.00  0.00    -0.039 C 
ATOM     12  C   UNL     1      34.033  -0.757  26.265  0.00  0.00    -0.032 C 
ATOM     13  C   UNL     1      32.612  -0.132  26.202  0.00  0.00    +0.006 C 
ATOM     14  C   UNL     1      31.868  -0.292  27.558  0.00  0.00    +0.030 C 
ATOM     15  C   UNL     1      30.442   0.305  27.552  0.00  0.00    -0.048 A 
ENDROOT
BRANCH  10  16
ATOM     16  C   UNL     1      36.230  -0.952  27.439  0.00  0.00    +0.114 A 
ATOM     17  N   UNL     1      36.827  -1.355  28.530  0.00  0.00    -0.246 N 
ATOM     18  C   UNL     1      37.950  -2.001  28.134  0.00  0.00    +0.109 A 
ATOM     19  C   UNL     1      37.983  -1.964  26.750  0.00  0.00    +0.090 A 
ATOM     20  C   UNL     1      39.001  -2.537  25.994  0.00  0.00    +0.030 A 
ATOM     21  C   UNL     1      40.017  -3.170  26.726  0.00  0.00    -0.002 A 
ATOM     22  C   UNL     1      39.995  -3.211  28.132  0.00  0.00    +0.007 A 
ATOM     23  C   UNL     1      38.956  -2.625  28.871  0.00  0.00    +0.037 A 
ATOM     24  H   UNL     1      36.514  -1.215  29.500  0.00  0.00    +0.235 HD
ATOM     25  N   UNL     1      36.878  -1.293  26.401  0.00  0.00    -0.247 NA
ENDBRANCH  10  16
BRANCH   3  26
ATOM     26  O   UNL     1      26.678   2.195  27.257  0.00  0.00    -0.339 OA
ATOM     27  H   UNL     1      26.444   2.746  27.995  0.00  0.00    +0.246 HD
ENDBRANCH   3  26
BRANCH   9  28
ATOM     28  C   UNL     1      34.163  -1.787  29.306  0.00  0.00    +0.179 C 
BRANCH  28  29
ATOM     29  C   UNL     1      33.424  -2.691  28.433  0.00  0.00    +0.089 C 
ATOM     30  N   UNL     1      32.836  -3.409  27.742  0.00  0.00    -0.304 NA
ENDBRANCH  28  29
ENDBRANCH   9  28
TORSDOF 4
ENDMDL
MODEL 4
REMARK minimizedAffinity -5.29274988
REMARK minimizedRMSD -1
REMARK  Name = 303
REMARK  5 active torsions:
REMARK  status: ('A' for Active; 'I' for Inactive)
REMARK    1  A    between atoms: C_3  and  O_4
REMARK    2  A    between atoms: C_5  and  C_17
REMARK    3  A    between atoms: C_15  and  C_20
REMARK    4  A    between atoms: C_15  and  C_23
REMARK    5  A    between atoms: C_16  and  C_17
REMARK                            x       y       z     vdW  Elec       q    Type
REMARK                         _______ _______ _______ _____ _____    ______ ____
ROOT
ATOM      1  C   UNL     1      27.546   0.313  26.502  0.00  0.00    -0.024 A 
ATOM      2  C   UNL     1      26.168   0.522  26.606  0.00  0.00    +0.000 A 
ATOM      3  C   UNL     1      25.356  -0.434  27.217  0.00  0.00    +0.074 A 
ATOM      4  C   UNL     1      25.939  -1.611  27.697  0.00  0.00    +0.008 A 
ATOM      5  C   UNL     1      27.320  -1.822  27.589  0.00  0.00    -0.049 A 
ATOM      6  C   UNL     1      27.867  -3.176  28.057  0.00  0.00    +0.058 C 
ATOM      7  C   UNL     1      29.328  -3.396  27.595  0.00  0.00    +0.018 C 
ATOM      8  C   UNL     1      30.162  -2.141  27.957  0.00  0.00    +0.000 C 
ATOM      9  C   UNL     1      31.713  -2.361  27.921  0.00  0.00    -0.004 C 
ATOM     10  C   UNL     1      32.457  -1.060  28.382  0.00  0.00    +0.006 C 
ATOM     11  C   UNL     1      32.290  -0.764  29.907  0.00  0.00    -0.039 C 
ATOM     12  C   UNL     1      31.961   0.150  27.535  0.00  0.00    -0.032 C 
ATOM     13  C   UNL     1      30.418   0.337  27.553  0.00  0.00    +0.006 C 
ATOM     14  C   UNL     1      29.691  -0.951  27.074  0.00  0.00    +0.030 C 
ATOM     15  C   UNL     1      28.150  -0.820  27.063  0.00  0.00    -0.048 A 
ENDROOT
BRANCH  10  16
ATOM     16  C   UNL     1      33.954  -1.209  28.183  0.00  0.00    +0.114 A 
ATOM     17  N   UNL     1      34.574  -1.039  27.044  0.00  0.00    -0.246 N 
ATOM     18  C   UNL     1      35.888  -1.260  27.287  0.00  0.00    +0.109 A 
ATOM     19  C   UNL     1      36.014  -1.565  28.633  0.00  0.00    +0.090 A 
ATOM     20  C   UNL     1      37.234  -1.848  29.240  0.00  0.00    +0.030 A 
ATOM     21  C   UNL     1      38.355  -1.808  28.397  0.00  0.00    -0.002 A 
ATOM     22  C   UNL     1      38.237  -1.503  27.030  0.00  0.00    +0.007 A 
ATOM     23  C   UNL     1      36.995  -1.221  26.441  0.00  0.00    +0.037 A 
ATOM     24  H   UNL     1      34.155  -0.787  26.138  0.00  0.00    +0.235 HD
ATOM     25  N   UNL     1      34.765  -1.511  29.112  0.00  0.00    -0.247 NA
ENDBRANCH  10  16
BRANCH   3  26
ATOM     26  O   UNL     1      23.983  -0.195  27.331  0.00  0.00    -0.339 OA
ATOM     27  H   UNL     1      23.493  -0.908  27.725  0.00  0.00    +0.246 HD
ENDBRANCH   3  26
BRANCH   9  28
ATOM     28  C   UNL     1      32.240  -2.896  26.549  0.00  0.00    +0.179 C 
BRANCH  28  29
ATOM     29  C   UNL     1      33.001  -4.132  26.686  0.00  0.00    +0.089 C 
ATOM     30  N   UNL     1      33.604  -5.114  26.793  0.00  0.00    -0.304 NA
ENDBRANCH  28  29
ENDBRANCH   9  28
TORSDOF 4
ENDMDL
MODEL 5
REMARK minimizedAffinity -5.21932364
REMARK minimizedRMSD -1
REMARK  Name = 303
REMARK  5 active torsions:
REMARK  status: ('A' for Active; 'I' for Inactive)
REMARK    1  A    between atoms: C_3  and  O_4
REMARK    2  A    between atoms: C_5  and  C_17
REMARK    3  A    between atoms: C_15  and  C_20
REMARK    4  A    between atoms: C_15  and  C_23
REMARK    5  A    between atoms: C_16  and  C_17
REMARK                            x       y       z     vdW  Elec       q    Type
REMARK                         _______ _______ _______ _____ _____    ______ ____
ROOT
ATOM      1  C   UNL     1      33.652  -1.982  20.442  0.00  0.00    -0.024 A 
ATOM      2  C   UNL     1      33.612  -2.464  19.131  0.00  0.00    +0.000 A 
ATOM      3  C   UNL     1      32.982  -3.676  18.846  0.00  0.00    +0.074 A 
ATOM      4  C   UNL     1      32.418  -4.409  19.895  0.00  0.00    +0.008 A 
ATOM      5  C   UNL     1      32.462  -3.927  21.210  0.00  0.00    -0.049 A 
ATOM      6  C   UNL     1      31.902  -4.832  22.314  0.00  0.00    +0.058 C 
ATOM      7  C   UNL     1      32.295  -4.330  23.724  0.00  0.00    +0.018 C 
ATOM      8  C   UNL     1      31.969  -2.819  23.826  0.00  0.00    +0.000 C 
ATOM      9  C   UNL     1      31.934  -2.261  25.290  0.00  0.00    -0.004 C 
ATOM     10  C   UNL     1      31.516  -0.750  25.285  0.00  0.00    +0.006 C 
ATOM     11  C   UNL     1      30.017  -0.529  24.906  0.00  0.00    -0.039 C 
ATOM     12  C   UNL     1      32.445   0.044  24.318  0.00  0.00    -0.032 C 
ATOM     13  C   UNL     1      32.496  -0.540  22.878  0.00  0.00    +0.006 C 
ATOM     14  C   UNL     1      32.933  -2.032  22.893  0.00  0.00    +0.030 C 
ATOM     15  C   UNL     1      33.009  -2.664  21.483  0.00  0.00    -0.048 A 
ENDROOT
BRANCH  10  16
ATOM     16  C   UNL     1      31.649  -0.160  26.678  0.00  0.00    +0.114 A 
ATOM     17  N   UNL     1      30.697  -0.146  27.573  0.00  0.00    -0.246 N 
ATOM     18  C   UNL     1      31.212   0.462  28.669  0.00  0.00    +0.109 A 
ATOM     19  C   UNL     1      32.522   0.802  28.376  0.00  0.00    +0.090 A 
ATOM     20  C   UNL     1      33.364   1.445  29.279  0.00  0.00    +0.030 A 
ATOM     21  C   UNL     1      32.803   1.736  30.531  0.00  0.00    -0.002 A 
ATOM     22  C   UNL     1      31.473   1.396  30.837  0.00  0.00    +0.007 A 
ATOM     23  C   UNL     1      30.643   0.749  29.909  0.00  0.00    +0.037 A 
ATOM     24  H   UNL     1      29.743  -0.521  27.475  0.00  0.00    +0.235 HD
ATOM     25  N   UNL     1      32.710   0.381  27.119  0.00  0.00    -0.247 NA
ENDBRANCH  10  16
BRANCH   3  26
ATOM     26  O   UNL     1      32.933  -4.129  17.525  0.00  0.00    -0.339 OA
ATOM     27  H   UNL     1      32.521  -4.978  17.416  0.00  0.00    +0.246 HD
ENDBRANCH   3  26
BRANCH   9  28
ATOM     28  C   UNL     1      33.255  -2.512  26.090  0.00  0.00    +0.179 C 
BRANCH  28  29
ATOM     29  C   UNL     1      33.319  -3.855  26.655  0.00  0.00    +0.089 C 
ATOM     30  N   UNL     1      33.369  -4.922  27.102  0.00  0.00    -0.304 NA
ENDBRANCH  28  29
ENDBRANCH   9  28
TORSDOF 4
ENDMDL
MODEL 6
REMARK minimizedAffinity -4.71873283
REMARK minimizedRMSD -1
REMARK  Name = 303
REMARK  5 active torsions:
REMARK  status: ('A' for Active; 'I' for Inactive)
REMARK    1  A    between atoms: C_3  and  O_4
REMARK    2  A    between atoms: C_5  and  C_17
REMARK    3  A    between atoms: C_15  and  C_20
REMARK    4  A    between atoms: C_15  and  C_23
REMARK    5  A    between atoms: C_16  and  C_17
REMARK                            x       y       z     vdW  Elec       q    Type
REMARK                         _______ _______ _______ _____ _____    ______ ____
ROOT
ATOM      1  C   UNL     1      33.681  -1.932  20.250  0.00  0.00    -0.024 A 
ATOM      2  C   UNL     1      33.637  -2.396  18.933  0.00  0.00    +0.000 A 
ATOM      3  C   UNL     1      33.009  -3.606  18.635  0.00  0.00    +0.074 A 
ATOM      4  C   UNL     1      32.451  -4.354  19.676  0.00  0.00    +0.008 A 
ATOM      5  C   UNL     1      32.499  -3.890  20.997  0.00  0.00    -0.049 A 
ATOM      6  C   UNL     1      31.946  -4.811  22.091  0.00  0.00    +0.058 C 
ATOM      7  C   UNL     1      32.344  -4.327  23.506  0.00  0.00    +0.018 C 
ATOM      8  C   UNL     1      32.014  -2.818  23.630  0.00  0.00    +0.000 C 
ATOM      9  C   UNL     1      31.985  -2.280  25.101  0.00  0.00    -0.004 C 
ATOM     10  C   UNL     1      31.563  -0.770  25.118  0.00  0.00    +0.006 C 
ATOM     11  C   UNL     1      30.061  -0.548  24.748  0.00  0.00    -0.039 C 
ATOM     12  C   UNL     1      32.485   0.039  24.158  0.00  0.00    -0.032 C 
ATOM     13  C   UNL     1      32.532  -0.525  22.710  0.00  0.00    +0.006 C 
ATOM     14  C   UNL     1      32.972  -2.016  22.703  0.00  0.00    +0.030 C 
ATOM     15  C   UNL     1      33.044  -2.629  21.285  0.00  0.00    -0.048 A 
ENDROOT
BRANCH  10  16
ATOM     16  C   UNL     1      31.701  -0.198  26.518  0.00  0.00    +0.114 A 
ATOM     17  N   UNL     1      32.665   0.595  26.905  0.00  0.00    -0.246 N 
ATOM     18  C   UNL     1      32.427   0.877  28.209  0.00  0.00    +0.109 A 
ATOM     19  C   UNL     1      31.267   0.213  28.571  0.00  0.00    +0.090 A 
ATOM     20  C   UNL     1      30.717   0.278  29.847  0.00  0.00    +0.030 A 
ATOM     21  C   UNL     1      31.416   1.071  30.770  0.00  0.00    -0.002 A 
ATOM     22  C   UNL     1      32.596   1.747  30.413  0.00  0.00    +0.007 A 
ATOM     23  C   UNL     1      33.131   1.665  29.118  0.00  0.00    +0.037 A 
ATOM     24  H   UNL     1      33.452   0.941  26.340  0.00  0.00    +0.235 HD
ATOM     25  N   UNL     1      30.883  -0.431  27.461  0.00  0.00    -0.247 NA
ENDBRANCH  10  16
BRANCH   3  26
ATOM     26  O   UNL     1      32.955  -4.041  17.307  0.00  0.00    -0.339 OA
ATOM     27  H   UNL     1      32.545  -4.890  17.189  0.00  0.00    +0.246 HD
ENDBRANCH   3  26
BRANCH   9  28
ATOM     28  C   UNL     1      33.309  -2.539  25.892  0.00  0.00    +0.179 C 
BRANCH  28  29
ATOM     29  C   UNL     1      33.280  -3.793  26.635  0.00  0.00    +0.089 C 
ATOM     30  N   UNL     1      33.258  -4.788  27.227  0.00  0.00    -0.304 NA
ENDBRANCH  28  29
ENDBRANCH   9  28
TORSDOF 4
ENDMDL
MODEL 7
REMARK minimizedAffinity -2.75933957
REMARK minimizedRMSD -1
REMARK  Name = 303
REMARK  5 active torsions:
REMARK  status: ('A' for Active; 'I' for Inactive)
REMARK    1  A    between atoms: C_3  and  O_4
REMARK    2  A    between atoms: C_5  and  C_17
REMARK    3  A    between atoms: C_15  and  C_20
REMARK    4  A    between atoms: C_15  and  C_23
REMARK    5  A    between atoms: C_16  and  C_17
REMARK                            x       y       z     vdW  Elec       q    Type
REMARK                         _______ _______ _______ _____ _____    ______ ____
ROOT
ATOM      1  C   UNL     1      32.403   2.022  28.333  0.00  0.00    -0.024 A 
ATOM      2  C   UNL     1      32.625   2.555  29.606  0.00  0.00    +0.000 A 
ATOM      3  C   UNL     1      32.185   1.873  30.740  0.00  0.00    +0.074 A 
ATOM      4  C   UNL     1      31.498   0.666  30.581  0.00  0.00    +0.008 A 
ATOM      5  C   UNL     1      31.272   0.133  29.305  0.00  0.00    -0.049 A 
ATOM      6  C   UNL     1      30.433  -1.147  29.211  0.00  0.00    +0.058 C 
ATOM      7  C   UNL     1      29.998  -1.444  27.756  0.00  0.00    +0.018 C 
ATOM      8  C   UNL     1      31.239  -1.352  26.834  0.00  0.00    +0.000 C 
ATOM      9  C   UNL     1      31.047  -2.006  25.423  0.00  0.00    -0.004 C 
ATOM     10  C   UNL     1      32.383  -1.932  24.604  0.00  0.00    +0.006 C 
ATOM     11  C   UNL     1      33.497  -2.876  25.160  0.00  0.00    -0.039 C 
ATOM     12  C   UNL     1      32.888  -0.458  24.565  0.00  0.00    -0.032 C 
ATOM     13  C   UNL     1      33.042   0.189  25.970  0.00  0.00    +0.006 C 
ATOM     14  C   UNL     1      31.706   0.130  26.764  0.00  0.00    +0.030 C 
ATOM     15  C   UNL     1      31.798   0.768  28.170  0.00  0.00    -0.048 A 
ENDROOT
BRANCH  10  16
ATOM     16  C   UNL     1      32.157  -2.404  23.180  0.00  0.00    +0.114 A 
ATOM     17  N   UNL     1      30.987  -2.688  22.667  0.00  0.00    -0.246 N 
ATOM     18  C   UNL     1      31.214  -3.067  21.386  0.00  0.00    +0.109 A 
ATOM     19  C   UNL     1      32.579  -2.988  21.166  0.00  0.00    +0.090 A 
ATOM     20  C   UNL     1      33.176  -3.303  19.949  0.00  0.00    +0.030 A 
ATOM     21  C   UNL     1      32.301  -3.715  18.933  0.00  0.00    -0.002 A 
ATOM     22  C   UNL     1      30.913  -3.802  19.148  0.00  0.00    +0.007 A 
ATOM     23  C   UNL     1      30.336  -3.478  20.384  0.00  0.00    +0.037 A 
ATOM     24  H   UNL     1      30.073  -2.635  23.136  0.00  0.00    +0.235 HD
ATOM     25  N   UNL     1      33.088  -2.569  22.332  0.00  0.00    -0.247 NA
ENDBRANCH  10  16
BRANCH   3  26
ATOM     26  O   UNL     1      32.438   2.413  32.005  0.00  0.00    -0.339 OA
ATOM     27  H   UNL     1      32.075   1.910  32.726  0.00  0.00    +0.246 HD
ENDBRANCH   3  26
BRANCH   9  28
ATOM     28  C   UNL     1      29.827  -1.438  24.627  0.00  0.00    +0.179 C 
BRANCH  28  29
ATOM     29  C   UNL     1      28.582  -1.517  25.381  0.00  0.00    +0.089 C 
ATOM     30  N   UNL     1      27.594  -1.582  25.981  0.00  0.00    -0.304 NA
ENDBRANCH  28  29
ENDBRANCH   9  28
TORSDOF 4
ENDMDL
MODEL 8
REMARK minimizedAffinity -2.56000566
REMARK minimizedRMSD -1
REMARK  Name = 303
REMARK  5 active torsions:
REMARK  status: ('A' for Active; 'I' for Inactive)
REMARK    1  A    between atoms: C_3  and  O_4
REMARK    2  A    between atoms: C_5  and  C_17
REMARK    3  A    between atoms: C_15  and  C_20
REMARK    4  A    between atoms: C_15  and  C_23
REMARK    5  A    between atoms: C_16  and  C_17
REMARK                            x       y       z     vdW  Elec       q    Type
REMARK                         _______ _______ _______ _____ _____    ______ ____
ROOT
ATOM      1  C   UNL     1      32.068  -3.134  17.554  0.00  0.00    -0.024 A 
ATOM      2  C   UNL     1      32.524  -3.462  16.274  0.00  0.00    +0.000 A 
ATOM      3  C   UNL     1      33.884  -3.395  15.973  0.00  0.00    +0.074 A 
ATOM      4  C   UNL     1      34.776  -2.969  16.963  0.00  0.00    +0.008 A 
ATOM      5  C   UNL     1      34.319  -2.636  18.244  0.00  0.00    -0.049 A 
ATOM      6  C   UNL     1      35.348  -2.092  19.243  0.00  0.00    +0.058 C 
ATOM      7  C   UNL     1      34.669  -1.474  20.489  0.00  0.00    +0.018 C 
ATOM      8  C   UNL     1      33.623  -2.478  21.038  0.00  0.00    +0.000 C 
ATOM      9  C   UNL     1      33.145  -2.180  22.500  0.00  0.00    -0.004 C 
ATOM     10  C   UNL     1      32.156  -3.296  22.986  0.00  0.00    +0.006 C 
ATOM     11  C   UNL     1      32.856  -4.670  23.235  0.00  0.00    -0.039 C 
ATOM     12  C   UNL     1      31.001  -3.453  21.952  0.00  0.00    -0.032 C 
ATOM     13  C   UNL     1      31.490  -3.715  20.501  0.00  0.00    +0.006 C 
ATOM     14  C   UNL     1      32.452  -2.592  20.021  0.00  0.00    +0.030 C 
ATOM     15  C   UNL     1      32.965  -2.797  18.577  0.00  0.00    -0.048 A 
ENDROOT
BRANCH  10  16
ATOM     16  C   UNL     1      31.556  -2.922  24.330  0.00  0.00    +0.114 A 
ATOM     17  N   UNL     1      32.097  -3.199  25.488  0.00  0.00    -0.246 N 
ATOM     18  C   UNL     1      31.260  -2.701  26.429  0.00  0.00    +0.109 A 
ATOM     19  C   UNL     1      30.197  -2.109  25.766  0.00  0.00    +0.090 A 
ATOM     20  C   UNL     1      29.139  -1.487  26.422  0.00  0.00    +0.030 A 
ATOM     21  C   UNL     1      29.208  -1.491  27.823  0.00  0.00    -0.002 A 
ATOM     22  C   UNL     1      30.281  -2.092  28.505  0.00  0.00    +0.007 A 
ATOM     23  C   UNL     1      31.336  -2.713  27.821  0.00  0.00    +0.037 A 
ATOM     24  H   UNL     1      32.982  -3.696  25.659  0.00  0.00    +0.235 HD
ATOM     25  N   UNL     1      30.462  -2.294  24.466  0.00  0.00    -0.247 NA
ENDBRANCH  10  16
BRANCH   3  26
ATOM     26  O   UNL     1      34.322  -3.750  14.694  0.00  0.00    -0.339 OA
ATOM     27  H   UNL     1      35.255  -3.642  14.555  0.00  0.00    +0.246 HD
ENDBRANCH   3  26
BRANCH   9  28
ATOM     28  C   UNL     1      32.561  -0.741  22.690  0.00  0.00    +0.179 C 
BRANCH  28  29
ATOM     29  C   UNL     1      32.747  -0.236  24.045  0.00  0.00    +0.089 C 
ATOM     30  N   UNL     1      32.897   0.163  25.121  0.00  0.00    -0.304 NA
ENDBRANCH  28  29
ENDBRANCH   9  28
TORSDOF 4
ENDMDL
MODEL 9
REMARK minimizedAffinity -1.72101438
REMARK minimizedRMSD -1
REMARK  Name = 303
REMARK  5 active torsions:
REMARK  status: ('A' for Active; 'I' for Inactive)
REMARK    1  A    between atoms: C_3  and  O_4
REMARK    2  A    between atoms: C_5  and  C_17
REMARK    3  A    between atoms: C_15  and  C_20
REMARK    4  A    between atoms: C_15  and  C_23
REMARK    5  A    between atoms: C_16  and  C_17
REMARK                            x       y       z     vdW  Elec       q    Type
REMARK                         _______ _______ _______ _____ _____    ______ ____
ROOT
ATOM      1  C   UNL     1      35.237  -3.309  17.909  0.00  0.00    -0.024 A 
ATOM      2  C   UNL     1      35.565  -3.169  16.557  0.00  0.00    +0.000 A 
ATOM      3  C   UNL     1      34.558  -3.047  15.599  0.00  0.00    +0.074 A 
ATOM      4  C   UNL     1      33.222  -3.095  16.011  0.00  0.00    +0.008 A 
ATOM      5  C   UNL     1      32.894  -3.239  17.365  0.00  0.00    -0.049 A 
ATOM      6  C   UNL     1      31.410  -3.374  17.723  0.00  0.00    +0.058 C 
ATOM      7  C   UNL     1      31.211  -3.840  19.185  0.00  0.00    +0.018 C 
ATOM      8  C   UNL     1      32.077  -2.953  20.116  0.00  0.00    +0.000 C 
ATOM      9  C   UNL     1      31.688  -3.031  21.631  0.00  0.00    -0.004 C 
ATOM     10  C   UNL     1      32.567  -2.039  22.469  0.00  0.00    +0.006 C 
ATOM     11  C   UNL     1      32.219  -0.538  22.206  0.00  0.00    -0.039 C 
ATOM     12  C   UNL     1      34.075  -2.306  22.178  0.00  0.00    -0.032 C 
ATOM     13  C   UNL     1      34.440  -2.259  20.668  0.00  0.00    +0.006 C 
ATOM     14  C   UNL     1      33.578  -3.262  19.850  0.00  0.00    +0.030 C 
ATOM     15  C   UNL     1      33.905  -3.264  18.339  0.00  0.00    -0.048 A 
ENDROOT
BRANCH  10  16
ATOM     16  C   UNL     1      32.318  -2.235  23.953  0.00  0.00    +0.114 A 
ATOM     17  N   UNL     1      33.130  -2.857  24.768  0.00  0.00    -0.246 N 
ATOM     18  C   UNL     1      32.550  -2.815  25.991  0.00  0.00    +0.109 A 
ATOM     19  C   UNL     1      31.353  -2.131  25.859  0.00  0.00    +0.090 A 
ATOM     20  C   UNL     1      30.488  -1.893  26.922  0.00  0.00    +0.030 A 
ATOM     21  C   UNL     1      30.902  -2.395  28.165  0.00  0.00    -0.002 A 
ATOM     22  C   UNL     1      32.114  -3.094  28.309  0.00  0.00    +0.007 A 
ATOM     23  C   UNL     1      32.970  -3.321  27.221  0.00  0.00    +0.037 A 
ATOM     24  H   UNL     1      34.033  -3.293  24.535  0.00  0.00    +0.235 HD
ATOM     25  N   UNL     1      31.288  -1.808  24.561  0.00  0.00    -0.247 NA
ENDBRANCH  10  16
BRANCH   3  26
ATOM     26  O   UNL     1      34.907  -2.885  14.255  0.00  0.00    -0.339 OA
ATOM     27  H   UNL     1      34.167  -2.847  13.660  0.00  0.00    +0.246 HD
ENDBRANCH   3  26
BRANCH   9  28
ATOM     28  C   UNL     1      31.710  -4.483  22.212  0.00  0.00    +0.179 C 
BRANCH  28  29
ATOM     29  C   UNL     1      32.647  -5.352  21.510  0.00  0.00    +0.089 C 
ATOM     30  N   UNL     1      33.390  -6.042  20.950  0.00  0.00    -0.304 NA
ENDBRANCH  28  29
ENDBRANCH   9  28
TORSDOF 4
ENDMDL
MODEL 10
REMARK minimizedAffinity -1.69677615
REMARK minimizedRMSD -1
REMARK  Name = 303
REMARK  5 active torsions:
REMARK  status: ('A' for Active; 'I' for Inactive)
REMARK    1  A    between atoms: C_3  and  O_4
REMARK    2  A    between atoms: C_5  and  C_17
REMARK    3  A    between atoms: C_15  and  C_20
REMARK    4  A    between atoms: C_15  and  C_23
REMARK    5  A    between atoms: C_16  and  C_17
REMARK                            x       y       z     vdW  Elec       q    Type
REMARK                         _______ _______ _______ _____ _____    ______ ____
ROOT
ATOM      1  C   UNL     1      31.178  -0.770  24.631  0.00  0.00    -0.024 A 
ATOM      2  C   UNL     1      30.968  -0.451  25.975  0.00  0.00    +0.000 A 
ATOM      3  C   UNL     1      31.297  -1.367  26.974  0.00  0.00    +0.074 A 
ATOM      4  C   UNL     1      31.813  -2.614  26.608  0.00  0.00    +0.008 A 
ATOM      5  C   UNL     1      32.020  -2.935  25.260  0.00  0.00    -0.049 A 
ATOM      6  C   UNL     1      32.501  -4.355  24.937  0.00  0.00    +0.058 C 
ATOM      7  C   UNL     1      32.384  -4.672  23.427  0.00  0.00    +0.018 C 
ATOM      8  C   UNL     1      33.025  -3.516  22.620  0.00  0.00    +0.000 C 
ATOM      9  C   UNL     1      33.341  -3.865  21.126  0.00  0.00    -0.004 C 
ATOM     10  C   UNL     1      34.059  -2.659  20.427  0.00  0.00    +0.006 C 
ATOM     11  C   UNL     1      35.519  -2.435  20.937  0.00  0.00    -0.039 C 
ATOM     12  C   UNL     1      33.212  -1.366  20.619  0.00  0.00    -0.032 C 
ATOM     13  C   UNL     1      32.877  -1.049  22.103  0.00  0.00    +0.006 C 
ATOM     14  C   UNL     1      32.146  -2.242  22.780  0.00  0.00    +0.030 C 
ATOM     15  C   UNL     1      31.781  -1.980  24.260  0.00  0.00    -0.048 A 
ENDROOT
BRANCH  10  16
ATOM     16  C   UNL     1      34.210  -2.924  18.940  0.00  0.00    +0.114 A 
ATOM     17  N   UNL     1      35.355  -3.025  18.315  0.00  0.00    -0.246 N 
ATOM     18  C   UNL     1      35.060  -3.261  17.014  0.00  0.00    +0.109 A 
ATOM     19  C   UNL     1      33.680  -3.299  16.903  0.00  0.00    +0.090 A 
ATOM     20  C   UNL     1      33.017  -3.526  15.700  0.00  0.00    +0.030 A 
ATOM     21  C   UNL     1      33.840  -3.719  14.581  0.00  0.00    -0.002 A 
ATOM     22  C   UNL     1      35.242  -3.678  14.683  0.00  0.00    +0.007 A 
ATOM     23  C   UNL     1      35.887  -3.448  15.907  0.00  0.00    +0.037 A 
ATOM     24  H   UNL     1      36.296  -2.944  18.723  0.00  0.00    +0.235 HD
ATOM     25  N   UNL     1      33.232  -3.079  18.146  0.00  0.00    -0.247 NA
ENDBRANCH  10  16
BRANCH   3  26
ATOM     26  O   UNL     1      31.101  -1.019  28.314  0.00  0.00    -0.339 OA
ATOM     27  H   UNL     1      31.313  -1.707  28.934  0.00  0.00    +0.246 HD
ENDBRANCH   3  26
BRANCH   9  28
ATOM     28  C   UNL     1      32.097  -4.366  20.321  0.00  0.00    +0.179 C 
BRANCH  28  29
ATOM     29  C   UNL     1      30.894  -3.596  20.615  0.00  0.00    +0.089 C 
ATOM     30  N   UNL     1      29.938  -2.985  20.845  0.00  0.00    -0.304 NA
ENDBRANCH  28  29
ENDBRANCH   9  28
TORSDOF 4
ENDMDL
MODEL 11
REMARK minimizedAffinity -1.12127984
REMARK minimizedRMSD -1
REMARK  Name = 303
REMARK  5 active torsions:
REMARK  status: ('A' for Active; 'I' for Inactive)
REMARK    1  A    between atoms: C_3  and  O_4
REMARK    2  A    between atoms: C_5  and  C_17
REMARK    3  A    between atoms: C_15  and  C_20
REMARK    4  A    between atoms: C_15  and  C_23
REMARK    5  A    between atoms: C_16  and  C_17
REMARK                            x       y       z     vdW  Elec       q    Type
REMARK                         _______ _______ _______ _____ _____    ______ ____
ROOT
ATOM      1  C   UNL     1      31.561  -1.002  24.099  0.00  0.00    -0.024 A 
ATOM      2  C   UNL     1      31.147  -0.968  25.433  0.00  0.00    +0.000 A 
ATOM      3  C   UNL     1      31.162  -2.132  26.203  0.00  0.00    +0.074 A 
ATOM      4  C   UNL     1      31.572  -3.330  25.611  0.00  0.00    +0.008 A 
ATOM      5  C   UNL     1      31.983  -3.364  24.272  0.00  0.00    -0.049 A 
ATOM      6  C   UNL     1      32.330  -4.732  23.673  0.00  0.00    +0.058 C 
ATOM      7  C   UNL     1      32.456  -4.670  22.132  0.00  0.00    +0.018 C 
ATOM      8  C   UNL     1      33.381  -3.486  21.753  0.00  0.00    +0.000 C 
ATOM      9  C   UNL     1      33.923  -3.531  20.284  0.00  0.00    -0.004 C 
ATOM     10  C   UNL     1      34.909  -2.338  20.031  0.00  0.00    +0.006 C 
ATOM     11  C   UNL     1      36.264  -2.490  20.794  0.00  0.00    -0.039 C 
ATOM     12  C   UNL     1      34.214  -0.998  20.418  0.00  0.00    -0.032 C 
ATOM     13  C   UNL     1      33.652  -0.979  21.867  0.00  0.00    +0.006 C 
ATOM     14  C   UNL     1      32.659  -2.152  22.100  0.00  0.00    +0.030 C 
ATOM     15  C   UNL     1      32.061  -2.178  23.525  0.00  0.00    -0.048 A 
ENDROOT
BRANCH  10  16
ATOM     16  C   UNL     1      35.299  -2.276  18.566  0.00  0.00    +0.114 A 
ATOM     17  N   UNL     1      35.307  -3.301  17.754  0.00  0.00    -0.246 N 
ATOM     18  C   UNL     1      35.710  -2.831  16.549  0.00  0.00    +0.109 A 
ATOM     19  C   UNL     1      35.936  -1.472  16.689  0.00  0.00    +0.090 A 
ATOM     20  C   UNL     1      36.360  -0.656  15.644  0.00  0.00    +0.030 A 
ATOM     21  C   UNL     1      36.552  -1.300  14.412  0.00  0.00    -0.002 A 
ATOM     22  C   UNL     1      36.329  -2.680  14.261  0.00  0.00    +0.007 A 
ATOM     23  C   UNL     1      35.901  -3.481  15.330  0.00  0.00    +0.037 A 
ATOM     24  H   UNL     1      35.058  -4.274  17.977  0.00  0.00    +0.235 HD
ATOM     25  N   UNL     1      35.657  -1.211  17.973  0.00  0.00    -0.247 NA
ENDBRANCH  10  16
BRANCH   3  26
ATOM     26  O   UNL     1      30.765  -2.072  27.542  0.00  0.00    -0.339 OA
ATOM     27  H   UNL     1      30.768  -2.911  27.989  0.00  0.00    +0.246 HD
ENDBRANCH   3  26
BRANCH   9  28
ATOM     28  C   UNL     1      32.797  -3.613  19.201  0.00  0.00    +0.179 C 
BRANCH  28  29
ATOM     29  C   UNL     1      31.465  -3.718  19.785  0.00  0.00    +0.089 C 
ATOM     30  N   UNL     1      30.407  -3.801  20.248  0.00  0.00    -0.304 NA
ENDBRANCH  28  29
ENDBRANCH   9  28
TORSDOF 4
ENDMDL
MODEL 12
REMARK minimizedAffinity 0.376204014
REMARK minimizedRMSD -1
REMARK  Name = 303
REMARK  5 active torsions:
REMARK  status: ('A' for Active; 'I' for Inactive)
REMARK    1  A    between atoms: C_3  and  O_4
REMARK    2  A    between atoms: C_5  and  C_17
REMARK    3  A    between atoms: C_15  and  C_20
REMARK    4  A    between atoms: C_15  and  C_23
REMARK    5  A    between atoms: C_16  and  C_17
REMARK                            x       y       z     vdW  Elec       q    Type
REMARK                         _______ _______ _______ _____ _____    ______ ____
ROOT
ATOM      1  C   UNL     1      32.075   1.338  27.773  0.00  0.00    -0.024 A 
ATOM      2  C   UNL     1      31.942   1.739  29.105  0.00  0.00    +0.000 A 
ATOM      3  C   UNL     1      30.966   1.163  29.919  0.00  0.00    +0.074 A 
ATOM      4  C   UNL     1      30.110   0.202  29.373  0.00  0.00    +0.008 A 
ATOM      5  C   UNL     1      30.241  -0.198  28.036  0.00  0.00    -0.049 A 
ATOM      6  C   UNL     1      29.207  -1.189  27.490  0.00  0.00    +0.058 C 
ATOM      7  C   UNL     1      29.273  -1.297  25.947  0.00  0.00    +0.018 C 
ATOM      8  C   UNL     1      30.747  -1.519  25.523  0.00  0.00    +0.000 C 
ATOM      9  C   UNL     1      30.927  -2.039  24.057  0.00  0.00    -0.004 C 
ATOM     10  C   UNL     1      32.444  -2.308  23.760  0.00  0.00    +0.006 C 
ATOM     11  C   UNL     1      33.010  -3.545  24.527  0.00  0.00    -0.039 C 
ATOM     12  C   UNL     1      33.274  -1.033  24.095  0.00  0.00    -0.032 C 
ATOM     13  C   UNL     1      33.059  -0.508  25.542  0.00  0.00    +0.006 C 
ATOM     14  C   UNL     1      31.556  -0.224  25.819  0.00  0.00    +0.030 C 
ATOM     15  C   UNL     1      31.284   0.309  27.245  0.00  0.00    -0.048 A 
ENDROOT
BRANCH  10  16
ATOM     16  C   UNL     1      32.643  -2.644  22.293  0.00  0.00    +0.114 A 
ATOM     17  N   UNL     1      31.854  -3.417  21.593  0.00  0.00    -0.246 N 
ATOM     18  C   UNL     1      32.373  -3.461  20.342  0.00  0.00    +0.109 A 
ATOM     19  C   UNL     1      33.509  -2.668  20.338  0.00  0.00    +0.090 A 
ATOM     20  C   UNL     1      34.301  -2.476  19.210  0.00  0.00    +0.030 A 
ATOM     21  C   UNL     1      33.879  -3.144  18.051  0.00  0.00    -0.002 A 
ATOM     22  C   UNL     1      32.730  -3.954  18.046  0.00  0.00    +0.007 A 
ATOM     23  C   UNL     1      31.947  -4.132  19.197  0.00  0.00    +0.037 A 
ATOM     24  H   UNL     1      31.006  -3.900  21.919  0.00  0.00    +0.235 HD
ATOM     25  N   UNL     1      33.603  -2.200  21.589  0.00  0.00    -0.247 NA
ENDBRANCH  10  16
BRANCH   3  26
ATOM     26  O   UNL     1      30.865   1.562  31.255  0.00  0.00    -0.339 OA
ATOM     27  H   UNL     1      30.154   1.153  31.734  0.00  0.00    +0.246 HD
ENDBRANCH   3  26
BRANCH   9  28
ATOM     28  C   UNL     1      30.261  -1.124  22.978  0.00  0.00    +0.179 C 
BRANCH  28  29
ATOM     29  C   UNL     1      29.550  -1.887  21.959  0.00  0.00    +0.089 C 
ATOM     30  N   UNL     1      28.983  -2.493  21.152  0.00  0.00    -0.304 NA
ENDBRANCH  28  29
ENDBRANCH   9  28
TORSDOF 4
ENDMDL
MODEL 13
REMARK minimizedAffinity 3.65124249
REMARK minimizedRMSD -1
REMARK  Name = 303
REMARK  5 active torsions:
REMARK  status: ('A' for Active; 'I' for Inactive)
REMARK    1  A    between atoms: C_3  and  O_4
REMARK    2  A    between atoms: C_5  and  C_17
REMARK    3  A    between atoms: C_15  and  C_20
REMARK    4  A    between atoms: C_15  and  C_23
REMARK    5  A    between atoms: C_16  and  C_17
REMARK                            x       y       z     vdW  Elec       q    Type
REMARK                         _______ _______ _______ _____ _____    ______ ____
ROOT
ATOM      1  C   UNL     1      31.441  -2.477  20.618  0.00  0.00    -0.024 A 
ATOM      2  C   UNL     1      31.540  -3.281  19.479  0.00  0.00    +0.000 A 
ATOM      3  C   UNL     1      32.281  -4.462  19.515  0.00  0.00    +0.074 A 
ATOM      4  C   UNL     1      32.941  -4.812  20.697  0.00  0.00    +0.008 A 
ATOM      5  C   UNL     1      32.845  -4.004  21.837  0.00  0.00    -0.049 A 
ATOM      6  C   UNL     1      33.671  -4.409  23.063  0.00  0.00    +0.058 C 
ATOM      7  C   UNL     1      33.723  -3.281  24.121  0.00  0.00    +0.018 C 
ATOM      8  C   UNL     1      32.283  -2.775  24.385  0.00  0.00    +0.000 C 
ATOM      9  C   UNL     1      32.122  -1.930  25.694  0.00  0.00    -0.004 C 
ATOM     10  C   UNL     1      30.619  -1.540  25.907  0.00  0.00    +0.006 C 
ATOM     11  C   UNL     1      29.717  -2.757  26.293  0.00  0.00    -0.039 C 
ATOM     12  C   UNL     1      30.074  -0.844  24.624  0.00  0.00    -0.032 C 
ATOM     13  C   UNL     1      30.269  -1.679  23.328  0.00  0.00    +0.006 C 
ATOM     14  C   UNL     1      31.766  -2.041  23.114  0.00  0.00    +0.030 C 
ATOM     15  C   UNL     1      32.022  -2.867  21.831  0.00  0.00    -0.048 A 
ENDROOT
BRANCH  10  16
ATOM     16  C   UNL     1      30.482  -0.579  27.074  0.00  0.00    +0.114 A 
ATOM     17  N   UNL     1      31.237  -0.594  28.142  0.00  0.00    -0.246 N 
ATOM     18  C   UNL     1      30.797   0.413  28.935  0.00  0.00    +0.109 A 
ATOM     19  C   UNL     1      29.745   1.029  28.277  0.00  0.00    +0.090 A 
ATOM     20  C   UNL     1      29.048   2.114  28.799  0.00  0.00    +0.030 A 
ATOM     21  C   UNL     1      29.478   2.563  30.057  0.00  0.00    -0.002 A 
ATOM     22  C   UNL     1      30.543   1.943  30.734  0.00  0.00    +0.007 A 
ATOM     23  C   UNL     1      31.230   0.849  30.186  0.00  0.00    +0.037 A 
ATOM     24  H   UNL     1      32.013  -1.238  28.348  0.00  0.00    +0.235 HD
ATOM     25  N   UNL     1      29.616   0.349  27.130  0.00  0.00    -0.247 NA
ENDBRANCH  10  16
BRANCH   3  26
ATOM     26  O   UNL     1      32.348  -5.264  18.371  0.00  0.00    -0.339 OA
ATOM     27  H   UNL     1      32.901  -6.032  18.463  0.00  0.00    +0.246 HD
ENDBRANCH   3  26
BRANCH   9  28
ATOM     28  C   UNL     1      33.075  -0.692  25.764  0.00  0.00    +0.179 C 
BRANCH  28  29
ATOM     29  C   UNL     1      33.820  -0.630  27.016  0.00  0.00    +0.089 C 
ATOM     30  N   UNL     1      34.410  -0.582  28.010  0.00  0.00    -0.304 NA
ENDBRANCH  28  29
ENDBRANCH   9  28
TORSDOF 4
ENDMDL
