MODEL 1
REMARK minimizedAffinity -8.3900528
REMARK minimizedRMSD -1
REMARK  Name = 301
REMARK  5 active torsions:
REMARK  status: ('A' for Active; 'I' for Inactive)
REMARK    1  A    between atoms: C_3  and  O_4
REMARK    2  A    between atoms: C_5  and  C_17
REMARK    3  A    between atoms: C_15  and  C_20
REMARK    4  A    between atoms: C_15  and  C_23
REMARK    5  A    between atoms: C_16  and  C_17
REMARK                            x       y       z     vdW  Elec       q    Type
REMARK                         _______ _______ _______ _____ _____    ______ ____
ROOT
ATOM      1  C   UNL     1      27.720  -1.753  27.696  0.00  0.00    -0.024 A 
ATOM      2  C   UNL     1      26.349  -1.712  27.436  0.00  0.00    +0.000 A 
ATOM      3  C   UNL     1      25.713  -0.493  27.195  0.00  0.00    +0.074 A 
ATOM      4  C   UNL     1      26.463   0.685  27.261  0.00  0.00    +0.008 A 
ATOM      5  C   UNL     1      27.836   0.646  27.533  0.00  0.00    -0.049 A 
ATOM      6  C   UNL     1      28.567   1.985  27.689  0.00  0.00    +0.058 C 
ATOM      7  C   UNL     1      29.984   1.799  28.282  0.00  0.00    +0.018 C 
ATOM      8  C   UNL     1      30.716   0.690  27.486  0.00  0.00    +0.003 C 
ATOM      9  C   UNL     1      32.268   0.661  27.687  0.00  0.00    +0.012 C 
ATOM     10  C   UNL     1      32.919  -0.433  26.771  0.00  0.00    +0.024 C 
ATOM     11  C   UNL     1      32.870  -0.072  25.250  0.00  0.00    -0.014 C 
ATOM     12  C   UNL     1      32.209  -1.800  27.020  0.00  0.00    -0.011 C 
ATOM     13  C   UNL     1      30.663  -1.751  26.855  0.00  0.00    +0.010 C 
ATOM     14  C   UNL     1      30.034  -0.676  27.784  0.00  0.00    +0.030 C 
ATOM     15  C   UNL     1      28.497  -0.586  27.662  0.00  0.00    -0.048 A 
ENDROOT
BRANCH  10  16
ATOM     16  C   UNL     1      34.400  -0.580  27.092  0.00  0.00    +0.109 C 
ATOM     17  N   UNL     1      35.282   0.313  26.774  0.00  0.00    -0.296 N 
ATOM     18  H   UNL     1      35.075   1.193  26.279  0.00  0.00    +0.187 HD
ATOM     19  C   UNL     1      36.610  -0.067  27.201  0.00  0.00    +0.156 C 
ATOM     20  C   UNL     1      36.265  -1.436  27.866  0.00  0.00    +0.150 C 
ATOM     21  N   UNL     1      34.834  -1.602  27.703  0.00  0.00    -0.273 NA
ENDBRANCH  10  16
BRANCH   3  22
ATOM     22  O   UNL     1      24.346  -0.479  26.902  0.00  0.00    -0.339 OA
ATOM     23  H   UNL     1      23.990   0.387  26.736  0.00  0.00    +0.246 HD
ENDBRANCH   3  22
BRANCH   9  24
ATOM     24  C   UNL     1      32.710   0.523  29.181  0.00  0.00    +0.183 C 
BRANCH  24  25
ATOM     25  C   UNL     1      33.905   1.300  29.485  0.00  0.00    +0.089 C 
ATOM     26  N   UNL     1      34.855   1.917  29.725  0.00  0.00    -0.304 NA
ENDBRANCH  24  25
ENDBRANCH   9  24
TORSDOF 4
ENDMDL
MODEL 2
REMARK minimizedAffinity -8.06194305
REMARK minimizedRMSD -1
REMARK  Name = 301
REMARK  5 active torsions:
REMARK  status: ('A' for Active; 'I' for Inactive)
REMARK    1  A    between atoms: C_3  and  O_4
REMARK    2  A    between atoms: C_5  and  C_17
REMARK    3  A    between atoms: C_15  and  C_20
REMARK    4  A    between atoms: C_15  and  C_23
REMARK    5  A    between atoms: C_16  and  C_17
REMARK                            x       y       z     vdW  Elec       q    Type
REMARK                         _______ _______ _______ _____ _____    ______ ____
ROOT
ATOM      1  C   UNL     1      27.654   0.361  26.679  0.00  0.00    -0.024 A 
ATOM      2  C   UNL     1      26.280   0.338  26.926  0.00  0.00    +0.000 A 
ATOM      3  C   UNL     1      25.683  -0.795  27.481  0.00  0.00    +0.074 A 
ATOM      4  C   UNL     1      26.476  -1.917  27.745  0.00  0.00    +0.008 A 
ATOM      5  C   UNL     1      27.852  -1.897  27.487  0.00  0.00    -0.049 A 
ATOM      6  C   UNL     1      28.632  -3.199  27.707  0.00  0.00    +0.058 C 
ATOM      7  C   UNL     1      30.055  -3.123  27.102  0.00  0.00    +0.018 C 
ATOM      8  C   UNL     1      30.729  -1.811  27.576  0.00  0.00    +0.003 C 
ATOM      9  C   UNL     1      32.284  -1.776  27.391  0.00  0.00    +0.012 C 
ATOM     10  C   UNL     1      32.876  -0.450  27.984  0.00  0.00    +0.024 C 
ATOM     11  C   UNL     1      32.807  -0.388  29.545  0.00  0.00    -0.014 C 
ATOM     12  C   UNL     1      32.122   0.769  27.366  0.00  0.00    -0.011 C 
ATOM     13  C   UNL     1      30.576   0.705  27.522  0.00  0.00    +0.010 C 
ATOM     14  C   UNL     1      30.006  -0.605  26.911  0.00  0.00    +0.030 C 
ATOM     15  C   UNL     1      28.471  -0.721  27.037  0.00  0.00    -0.048 A 
ENDROOT
BRANCH  10  16
ATOM     16  C   UNL     1      34.357  -0.336  27.651  0.00  0.00    +0.109 C 
ATOM     17  N   UNL     1      35.196  -1.305  27.833  0.00  0.00    -0.296 N 
ATOM     18  H   UNL     1      34.952  -2.230  28.216  0.00  0.00    +0.187 HD
ATOM     19  C   UNL     1      36.535  -0.940  27.428  0.00  0.00    +0.156 C 
ATOM     20  C   UNL     1      36.251   0.519  26.951  0.00  0.00    +0.150 C 
ATOM     21  N   UNL     1      34.834   0.733  27.166  0.00  0.00    -0.273 NA
ENDBRANCH  10  16
BRANCH   3  22
ATOM     22  O   UNL     1      24.311  -0.784  27.752  0.00  0.00    -0.339 OA
ATOM     23  H   UNL     1      23.983  -1.586  28.143  0.00  0.00    +0.246 HD
ENDBRANCH   3  22
BRANCH   9  24
ATOM     24  C   UNL     1      32.752  -2.029  25.920  0.00  0.00    +0.183 C 
BRANCH  24  25
ATOM     25  C   UNL     1      32.794  -3.447  25.584  0.00  0.00    +0.089 C 
ATOM     26  N   UNL     1      32.826  -4.573  25.317  0.00  0.00    -0.304 NA
ENDBRANCH  24  25
ENDBRANCH   9  24
TORSDOF 4
ENDMDL
MODEL 3
REMARK minimizedAffinity -6.86856556
REMARK minimizedRMSD -1
REMARK  Name = 301
REMARK  5 active torsions:
REMARK  status: ('A' for Active; 'I' for Inactive)
REMARK    1  A    between atoms: C_3  and  O_4
REMARK    2  A    between atoms: C_5  and  C_17
REMARK    3  A    between atoms: C_15  and  C_20
REMARK    4  A    between atoms: C_15  and  C_23
REMARK    5  A    between atoms: C_16  and  C_17
REMARK                            x       y       z     vdW  Elec       q    Type
REMARK                         _______ _______ _______ _____ _____    ______ ____
ROOT
ATOM      1  C   UNL     1      33.843  -3.410  20.785  0.00  0.00    -0.024 A 
ATOM      2  C   UNL     1      33.033  -4.335  21.448  0.00  0.00    +0.000 A 
ATOM      3  C   UNL     1      31.799  -4.703  20.912  0.00  0.00    +0.074 A 
ATOM      4  C   UNL     1      31.371  -4.100  19.724  0.00  0.00    +0.008 A 
ATOM      5  C   UNL     1      32.178  -3.165  19.064  0.00  0.00    -0.049 A 
ATOM      6  C   UNL     1      31.594  -2.475  17.826  0.00  0.00    +0.058 C 
ATOM      7  C   UNL     1      32.454  -1.265  17.386  0.00  0.00    +0.018 C 
ATOM      8  C   UNL     1      33.936  -1.708  17.310  0.00  0.00    +0.003 C 
ATOM      9  C   UNL     1      34.864  -0.738  16.504  0.00  0.00    +0.012 C 
ATOM     10  C   UNL     1      36.317  -1.323  16.409  0.00  0.00    +0.024 C 
ATOM     11  C   UNL     1      36.415  -2.584  15.491  0.00  0.00    -0.014 C 
ATOM     12  C   UNL     1      36.827  -1.664  17.844  0.00  0.00    -0.011 C 
ATOM     13  C   UNL     1      35.879  -2.597  18.649  0.00  0.00    +0.010 C 
ATOM     14  C   UNL     1      34.451  -1.993  18.749  0.00  0.00    +0.030 C 
ATOM     15  C   UNL     1      33.466  -2.879  19.543  0.00  0.00    -0.048 A 
ENDROOT
BRANCH  10  16
ATOM     16  C   UNL     1      37.257  -0.304  15.779  0.00  0.00    +0.109 C 
ATOM     17  N   UNL     1      38.131   0.363  16.462  0.00  0.00    -0.296 N 
ATOM     18  H   UNL     1      38.274   0.277  17.479  0.00  0.00    +0.187 HD
ATOM     19  C   UNL     1      38.901   1.255  15.624  0.00  0.00    +0.156 C 
ATOM     20  C   UNL     1      38.238   0.925  14.250  0.00  0.00    +0.150 C 
ATOM     21  N   UNL     1      37.224  -0.071  14.534  0.00  0.00    -0.273 NA
ENDBRANCH  10  16
BRANCH   3  22
ATOM     22  O   UNL     1      31.020  -5.656  21.574  0.00  0.00    -0.339 OA
ATOM     23  H   UNL     1      30.201  -5.865  21.139  0.00  0.00    +0.246 HD
ENDBRANCH   3  22
BRANCH   9  24
ATOM     24  C   UNL     1      34.850   0.734  17.031  0.00  0.00    +0.183 C 
BRANCH  24  25
ATOM     25  C   UNL     1      34.910   1.714  15.954  0.00  0.00    +0.089 C 
ATOM     26  N   UNL     1      34.955   2.492  15.097  0.00  0.00    -0.304 NA
ENDBRANCH  24  25
ENDBRANCH   9  24
TORSDOF 4
ENDMDL
MODEL 4
REMARK minimizedAffinity -5.93438148
REMARK minimizedRMSD -1
REMARK  Name = 301
REMARK  5 active torsions:
REMARK  status: ('A' for Active; 'I' for Inactive)
REMARK    1  A    between atoms: C_3  and  O_4
REMARK    2  A    between atoms: C_5  and  C_17
REMARK    3  A    between atoms: C_15  and  C_20
REMARK    4  A    between atoms: C_15  and  C_23
REMARK    5  A    between atoms: C_16  and  C_17
REMARK                            x       y       z     vdW  Elec       q    Type
REMARK                         _______ _______ _______ _____ _____    ______ ____
ROOT
ATOM      1  C   UNL     1      31.806  -2.189  22.276  0.00  0.00    -0.024 A 
ATOM      2  C   UNL     1      31.824  -3.122  21.238  0.00  0.00    +0.000 A 
ATOM      3  C   UNL     1      32.276  -4.422  21.469  0.00  0.00    +0.074 A 
ATOM      4  C   UNL     1      32.746  -4.760  22.742  0.00  0.00    +0.008 A 
ATOM      5  C   UNL     1      32.738  -3.820  23.780  0.00  0.00    -0.049 A 
ATOM      6  C   UNL     1      33.364  -4.236  25.117  0.00  0.00    +0.058 C 
ATOM      7  C   UNL     1      33.562  -3.023  26.058  0.00  0.00    +0.018 C 
ATOM      8  C   UNL     1      32.238  -2.221  26.123  0.00  0.00    +0.003 C 
ATOM      9  C   UNL     1      32.143  -1.219  27.322  0.00  0.00    +0.012 C 
ATOM     10  C   UNL     1      30.735  -0.529  27.349  0.00  0.00    +0.024 C 
ATOM     11  C   UNL     1      29.578  -1.504  27.744  0.00  0.00    -0.014 C 
ATOM     12  C   UNL     1      30.447   0.104  25.951  0.00  0.00    -0.011 C 
ATOM     13  C   UNL     1      30.581  -0.892  24.764  0.00  0.00    +0.010 C 
ATOM     14  C   UNL     1      31.989  -1.550  24.742  0.00  0.00    +0.030 C 
ATOM     15  C   UNL     1      32.179  -2.549  23.579  0.00  0.00    -0.048 A 
ENDROOT
BRANCH  10  16
ATOM     16  C   UNL     1      30.702   0.568  28.404  0.00  0.00    +0.109 C 
ATOM     17  N   UNL     1      31.055   0.372  29.634  0.00  0.00    -0.296 N 
ATOM     18  H   UNL     1      31.383  -0.527  30.016  0.00  0.00    +0.187 HD
ATOM     19  C   UNL     1      30.939   1.577  30.425  0.00  0.00    +0.156 C 
ATOM     20  C   UNL     1      30.421   2.543  29.314  0.00  0.00    +0.150 C 
ATOM     21  N   UNL     1      30.327   1.742  28.110  0.00  0.00    -0.273 NA
ENDBRANCH  10  16
BRANCH   3  22
ATOM     22  O   UNL     1      32.253  -5.351  20.424  0.00  0.00    -0.339 OA
ATOM     23  H   UNL     1      32.562  -6.218  20.663  0.00  0.00    +0.246 HD
ENDBRANCH   3  22
BRANCH   9  24
ATOM     24  C   UNL     1      33.313  -0.182  27.374  0.00  0.00    +0.183 C 
BRANCH  24  25
ATOM     25  C   UNL     1      34.297  -0.501  28.400  0.00  0.00    +0.089 C 
ATOM     26  N   UNL     1      35.081  -0.756  29.214  0.00  0.00    -0.304 NA
ENDBRANCH  24  25
ENDBRANCH   9  24
TORSDOF 4
ENDMDL
MODEL 5
REMARK minimizedAffinity -5.82116795
REMARK minimizedRMSD -1
REMARK  Name = 301
REMARK  5 active torsions:
REMARK  status: ('A' for Active; 'I' for Inactive)
REMARK    1  A    between atoms: C_3  and  O_4
REMARK    2  A    between atoms: C_5  and  C_17
REMARK    3  A    between atoms: C_15  and  C_20
REMARK    4  A    between atoms: C_15  and  C_23
REMARK    5  A    between atoms: C_16  and  C_17
REMARK                            x       y       z     vdW  Elec       q    Type
REMARK                         _______ _______ _______ _____ _____    ______ ____
ROOT
ATOM      1  C   UNL     1      32.172  -3.534  17.797  0.00  0.00    -0.024 A 
ATOM      2  C   UNL     1      30.946  -4.016  18.260  0.00  0.00    +0.000 A 
ATOM      3  C   UNL     1      30.577  -3.836  19.594  0.00  0.00    +0.074 A 
ATOM      4  C   UNL     1      31.471  -3.204  20.464  0.00  0.00    +0.008 A 
ATOM      5  C   UNL     1      32.706  -2.731  20.003  0.00  0.00    -0.049 A 
ATOM      6  C   UNL     1      33.671  -2.143  21.038  0.00  0.00    +0.058 C 
ATOM      7  C   UNL     1      35.090  -1.946  20.452  0.00  0.00    +0.018 C 
ATOM      8  C   UNL     1      34.972  -1.200  19.100  0.00  0.00    +0.003 C 
ATOM      9  C   UNL     1      36.311  -0.573  18.583  0.00  0.00    +0.012 C 
ATOM     10  C   UNL     1      36.064   0.234  17.261  0.00  0.00    +0.024 C 
ATOM     11  C   UNL     1      35.242   1.546  17.484  0.00  0.00    -0.014 C 
ATOM     12  C   UNL     1      35.337  -0.683  16.228  0.00  0.00    -0.011 C 
ATOM     13  C   UNL     1      34.029  -1.331  16.765  0.00  0.00    +0.010 C 
ATOM     14  C   UNL     1      34.297  -2.142  18.063  0.00  0.00    +0.030 C 
ATOM     15  C   UNL     1      33.029  -2.810  18.639  0.00  0.00    -0.048 A 
ENDROOT
BRANCH  10  16
ATOM     16  C   UNL     1      37.388   0.695  16.667  0.00  0.00    +0.109 C 
ATOM     17  N   UNL     1      38.528   0.195  17.017  0.00  0.00    -0.296 N 
ATOM     18  H   UNL     1      38.654  -0.549  17.720  0.00  0.00    +0.187 HD
ATOM     19  C   UNL     1      39.626   0.801  16.297  0.00  0.00    +0.156 C 
ATOM     20  C   UNL     1      38.811   1.802  15.419  0.00  0.00    +0.150 C 
ATOM     21  N   UNL     1      37.422   1.603  15.783  0.00  0.00    -0.273 NA
ENDBRANCH  10  16
BRANCH   3  22
ATOM     22  O   UNL     1      29.330  -4.296  20.028  0.00  0.00    -0.339 OA
ATOM     23  H   UNL     1      29.146  -4.122  20.945  0.00  0.00    +0.246 HD
ENDBRANCH   3  22
BRANCH   9  24
ATOM     24  C   UNL     1      37.477  -1.605  18.440  0.00  0.00    +0.183 C 
BRANCH  24  25
ATOM     25  C   UNL     1      38.203  -1.806  19.688  0.00  0.00    +0.089 C 
ATOM     26  N   UNL     1      38.780  -1.965  20.678  0.00  0.00    -0.304 NA
ENDBRANCH  24  25
ENDBRANCH   9  24
TORSDOF 4
ENDMDL
MODEL 6
REMARK minimizedAffinity -5.71336508
REMARK minimizedRMSD -1
REMARK  Name = 301
REMARK  5 active torsions:
REMARK  status: ('A' for Active; 'I' for Inactive)
REMARK    1  A    between atoms: C_3  and  O_4
REMARK    2  A    between atoms: C_5  and  C_17
REMARK    3  A    between atoms: C_15  and  C_20
REMARK    4  A    between atoms: C_15  and  C_23
REMARK    5  A    between atoms: C_16  and  C_17
REMARK                            x       y       z     vdW  Elec       q    Type
REMARK                         _______ _______ _______ _____ _____    ______ ____
ROOT
ATOM      1  C   UNL     1      27.188   0.918  26.890  0.00  0.00    -0.024 A 
ATOM      2  C   UNL     1      25.825   0.615  26.875  0.00  0.00    +0.000 A 
ATOM      3  C   UNL     1      25.375  -0.629  27.318  0.00  0.00    +0.074 A 
ATOM      4  C   UNL     1      26.314  -1.578  27.737  0.00  0.00    +0.008 A 
ATOM      5  C   UNL     1      27.681  -1.277  27.743  0.00  0.00    -0.049 A 
ATOM      6  C   UNL     1      28.653  -2.403  28.118  0.00  0.00    +0.058 C 
ATOM      7  C   UNL     1      30.118  -2.029  27.790  0.00  0.00    +0.018 C 
ATOM      8  C   UNL     1      30.415  -0.623  28.371  0.00  0.00    +0.003 C 
ATOM      9  C   UNL     1      31.937  -0.274  28.481  0.00  0.00    +0.012 C 
ATOM     10  C   UNL     1      32.130   1.126  29.162  0.00  0.00    +0.024 C 
ATOM     11  C   UNL     1      31.761   1.129  30.681  0.00  0.00    -0.014 C 
ATOM     12  C   UNL     1      31.275   2.188  28.402  0.00  0.00    -0.011 C 
ATOM     13  C   UNL     1      29.773   1.813  28.264  0.00  0.00    +0.010 C 
ATOM     14  C   UNL     1      29.601   0.433  27.570  0.00  0.00    +0.030 C 
ATOM     15  C   UNL     1      28.124   0.011  27.405  0.00  0.00    -0.048 A 
ENDROOT
BRANCH  10  16
ATOM     16  C   UNL     1      33.594   1.542  29.112  0.00  0.00    +0.109 C 
ATOM     17  N   UNL     1      34.065   2.353  28.221  0.00  0.00    -0.296 N 
ATOM     18  H   UNL     1      33.510   2.788  27.469  0.00  0.00    +0.187 HD
ATOM     19  C   UNL     1      35.480   2.589  28.403  0.00  0.00    +0.156 C 
ATOM     20  C   UNL     1      35.713   1.690  29.657  0.00  0.00    +0.150 C 
ATOM     21  N   UNL     1      34.423   1.104  29.965  0.00  0.00    -0.273 NA
ENDBRANCH  10  16
BRANCH   3  22
ATOM     22  O   UNL     1      24.003  -0.900  27.326  0.00  0.00    -0.339 OA
ATOM     23  H   UNL     1      23.776  -1.762  27.656  0.00  0.00    +0.246 HD
ENDBRANCH   3  22
BRANCH   9  24
ATOM     24  C   UNL     1      32.712  -0.387  27.127  0.00  0.00    +0.183 C 
BRANCH  24  25
ATOM     25  C   UNL     1      33.950  -1.145  27.253  0.00  0.00    +0.089 C 
ATOM     26  N   UNL     1      34.935  -1.746  27.354  0.00  0.00    -0.304 NA
ENDBRANCH  24  25
ENDBRANCH   9  24
TORSDOF 4
ENDMDL
MODEL 7
REMARK minimizedAffinity -5.29766798
REMARK minimizedRMSD -1
REMARK  Name = 301
REMARK  5 active torsions:
REMARK  status: ('A' for Active; 'I' for Inactive)
REMARK    1  A    between atoms: C_3  and  O_4
REMARK    2  A    between atoms: C_5  and  C_17
REMARK    3  A    between atoms: C_15  and  C_20
REMARK    4  A    between atoms: C_15  and  C_23
REMARK    5  A    between atoms: C_16  and  C_17
REMARK                            x       y       z     vdW  Elec       q    Type
REMARK                         _______ _______ _______ _____ _____    ______ ____
ROOT
ATOM      1  C   UNL     1      33.652  -1.890  20.618  0.00  0.00    -0.024 A 
ATOM      2  C   UNL     1      33.604  -2.274  19.276  0.00  0.00    +0.000 A 
ATOM      3  C   UNL     1      32.973  -3.462  18.906  0.00  0.00    +0.074 A 
ATOM      4  C   UNL     1      32.429  -4.278  19.903  0.00  0.00    +0.008 A 
ATOM      5  C   UNL     1      32.486  -3.898  21.249  0.00  0.00    -0.049 A 
ATOM      6  C   UNL     1      31.959  -4.894  22.290  0.00  0.00    +0.058 C 
ATOM      7  C   UNL     1      32.359  -4.485  23.728  0.00  0.00    +0.018 C 
ATOM      8  C   UNL     1      32.001  -2.993  23.940  0.00  0.00    +0.003 C 
ATOM      9  C   UNL     1      31.964  -2.539  25.438  0.00  0.00    +0.012 C 
ATOM     10  C   UNL     1      31.504  -1.044  25.547  0.00  0.00    +0.024 C 
ATOM     11  C   UNL     1      29.997  -0.835  25.185  0.00  0.00    -0.014 C 
ATOM     12  C   UNL     1      32.403  -0.162  24.625  0.00  0.00    -0.011 C 
ATOM     13  C   UNL     1      32.463  -0.644  23.148  0.00  0.00    +0.010 C 
ATOM     14  C   UNL     1      32.940  -2.120  23.059  0.00  0.00    +0.030 C 
ATOM     15  C   UNL     1      33.019  -2.651  21.611  0.00  0.00    -0.048 A 
ENDROOT
BRANCH  10  16
ATOM     16  C   UNL     1      31.635  -0.553  26.982  0.00  0.00    +0.109 C 
ATOM     17  N   UNL     1      32.465   0.375  27.335  0.00  0.00    -0.296 N 
ATOM     18  H   UNL     1      33.111   0.862  26.695  0.00  0.00    +0.187 HD
ATOM     19  C   UNL     1      32.384   0.659  28.750  0.00  0.00    +0.156 C 
ATOM     20  C   UNL     1      31.267  -0.360  29.135  0.00  0.00    +0.150 C 
ATOM     21  N   UNL     1      30.914  -1.040  27.905  0.00  0.00    -0.273 NA
ENDBRANCH  10  16
BRANCH   3  22
ATOM     22  O   UNL     1      32.906  -3.811  17.554  0.00  0.00    -0.339 OA
ATOM     23  H   UNL     1      32.448  -4.625  17.381  0.00  0.00    +0.246 HD
ENDBRANCH   3  22
BRANCH   9  24
ATOM     24  C   UNL     1      33.296  -2.808  26.213  0.00  0.00    +0.183 C 
BRANCH  24  25
ATOM     25  C   UNL     1      33.316  -4.118  26.852  0.00  0.00    +0.089 C 
ATOM     26  N   UNL     1      33.332  -5.159  27.359  0.00  0.00    -0.304 NA
ENDBRANCH  24  25
ENDBRANCH   9  24
TORSDOF 4
ENDMDL
MODEL 8
REMARK minimizedAffinity -5.14913416
REMARK minimizedRMSD -1
REMARK  Name = 301
REMARK  5 active torsions:
REMARK  status: ('A' for Active; 'I' for Inactive)
REMARK    1  A    between atoms: C_3  and  O_4
REMARK    2  A    between atoms: C_5  and  C_17
REMARK    3  A    between atoms: C_15  and  C_20
REMARK    4  A    between atoms: C_15  and  C_23
REMARK    5  A    between atoms: C_16  and  C_17
REMARK                            x       y       z     vdW  Elec       q    Type
REMARK                         _______ _______ _______ _____ _____    ______ ____
ROOT
ATOM      1  C   UNL     1      32.643  -1.818  22.704  0.00  0.00    -0.024 A 
ATOM      2  C   UNL     1      32.299  -2.287  23.973  0.00  0.00    +0.000 A 
ATOM      3  C   UNL     1      32.297  -3.657  24.240  0.00  0.00    +0.074 A 
ATOM      4  C   UNL     1      32.606  -4.548  23.207  0.00  0.00    +0.008 A 
ATOM      5  C   UNL     1      32.941  -4.078  21.932  0.00  0.00    -0.049 A 
ATOM      6  C   UNL     1      33.165  -5.119  20.829  0.00  0.00    +0.058 C 
ATOM      7  C   UNL     1      33.222  -4.465  19.427  0.00  0.00    +0.018 C 
ATOM      8  C   UNL     1      34.207  -3.270  19.474  0.00  0.00    +0.003 C 
ATOM      9  C   UNL     1      34.682  -2.763  18.071  0.00  0.00    +0.012 C 
ATOM     10  C   UNL     1      35.741  -1.618  18.233  0.00  0.00    +0.024 C 
ATOM     11  C   UNL     1      37.111  -2.119  18.795  0.00  0.00    -0.014 C 
ATOM     12  C   UNL     1      35.157  -0.506  19.159  0.00  0.00    -0.011 C 
ATOM     13  C   UNL     1      34.653  -1.026  20.535  0.00  0.00    +0.010 C 
ATOM     14  C   UNL     1      33.590  -2.146  20.355  0.00  0.00    +0.030 C 
ATOM     15  C   UNL     1      33.052  -2.699  21.693  0.00  0.00    -0.048 A 
ENDROOT
BRANCH  10  16
ATOM     16  C   UNL     1      36.073  -1.008  16.877  0.00  0.00    +0.109 C 
ATOM     17  N   UNL     1      36.590  -1.690  15.906  0.00  0.00    -0.296 N 
ATOM     18  H   UNL     1      36.827  -2.692  15.952  0.00  0.00    +0.187 HD
ATOM     19  C   UNL     1      36.797  -0.877  14.729  0.00  0.00    +0.156 C 
ATOM     20  C   UNL     1      36.253   0.480  15.277  0.00  0.00    +0.150 C 
ATOM     21  N   UNL     1      35.844   0.216  16.642  0.00  0.00    -0.273 NA
ENDBRANCH  10  16
BRANCH   3  22
ATOM     22  O   UNL     1      31.983  -4.104  25.527  0.00  0.00    -0.339 OA
ATOM     23  H   UNL     1      32.019  -5.048  25.634  0.00  0.00    +0.246 HD
ENDBRANCH   3  22
BRANCH   9  24
ATOM     24  C   UNL     1      33.512  -2.359  17.115  0.00  0.00    +0.183 C 
BRANCH  24  25
ATOM     25  C   UNL     1      33.530  -3.105  15.863  0.00  0.00    +0.089 C 
ATOM     26  N   UNL     1      33.546  -3.699  14.869  0.00  0.00    -0.304 NA
ENDBRANCH  24  25
ENDBRANCH   9  24
TORSDOF 4
ENDMDL
MODEL 9
REMARK minimizedAffinity -5.01412964
REMARK minimizedRMSD -1
REMARK  Name = 301
REMARK  5 active torsions:
REMARK  status: ('A' for Active; 'I' for Inactive)
REMARK    1  A    between atoms: C_3  and  O_4
REMARK    2  A    between atoms: C_5  and  C_17
REMARK    3  A    between atoms: C_15  and  C_20
REMARK    4  A    between atoms: C_15  and  C_23
REMARK    5  A    between atoms: C_16  and  C_17
REMARK                            x       y       z     vdW  Elec       q    Type
REMARK                         _______ _______ _______ _____ _____    ______ ____
ROOT
ATOM      1  C   UNL     1      33.009  -2.840  18.229  0.00  0.00    -0.024 A 
ATOM      2  C   UNL     1      32.358  -3.689  19.126  0.00  0.00    +0.000 A 
ATOM      3  C   UNL     1      32.907  -3.937  20.385  0.00  0.00    +0.074 A 
ATOM      4  C   UNL     1      34.135  -3.354  20.715  0.00  0.00    +0.008 A 
ATOM      5  C   UNL     1      34.793  -2.511  19.812  0.00  0.00    -0.049 A 
ATOM      6  C   UNL     1      36.181  -1.995  20.206  0.00  0.00    +0.058 C 
ATOM      7  C   UNL     1      36.911  -1.339  19.009  0.00  0.00    +0.018 C 
ATOM      8  C   UNL     1      35.951  -0.326  18.335  0.00  0.00    +0.003 C 
ATOM      9  C   UNL     1      36.653   0.698  17.381  0.00  0.00    +0.012 C 
ATOM     10  C   UNL     1      35.611   1.731  16.825  0.00  0.00    +0.024 C 
ATOM     11  C   UNL     1      35.084   2.721  17.914  0.00  0.00    -0.014 C 
ATOM     12  C   UNL     1      34.418   0.958  16.181  0.00  0.00    -0.011 C 
ATOM     13  C   UNL     1      33.753  -0.084  17.124  0.00  0.00    +0.010 C 
ATOM     14  C   UNL     1      34.796  -1.109  17.649  0.00  0.00    +0.030 C 
ATOM     15  C   UNL     1      34.188  -2.172  18.591  0.00  0.00    -0.048 A 
ENDROOT
BRANCH  10  16
ATOM     16  C   UNL     1      36.256   2.616  15.767  0.00  0.00    +0.109 C 
ATOM     17  N   UNL     1      37.404   2.351  15.232  0.00  0.00    -0.296 N 
ATOM     18  H   UNL     1      37.987   1.533  15.465  0.00  0.00    +0.187 HD
ATOM     19  C   UNL     1      37.783   3.344  14.252  0.00  0.00    +0.156 C 
ATOM     20  C   UNL     1      36.531   4.271  14.356  0.00  0.00    +0.150 C 
ATOM     21  N   UNL     1      35.676   3.666  15.357  0.00  0.00    -0.273 NA
ENDBRANCH  10  16
BRANCH   3  22
ATOM     22  O   UNL     1      32.221  -4.763  21.281  0.00  0.00    -0.339 OA
ATOM     23  H   UNL     1      32.651  -4.871  22.122  0.00  0.00    +0.246 HD
ENDBRANCH   3  22
BRANCH   9  24
ATOM     24  C   UNL     1      37.492   0.031  16.243  0.00  0.00    +0.183 C 
BRANCH  24  25
ATOM     25  C   UNL     1      38.893   0.432  16.273  0.00  0.00    +0.089 C 
ATOM     26  N   UNL     1      40.007   0.748  16.297  0.00  0.00    -0.304 NA
ENDBRANCH  24  25
ENDBRANCH   9  24
TORSDOF 4
ENDMDL
MODEL 10
REMARK minimizedAffinity -4.44451761
REMARK minimizedRMSD -1
REMARK  Name = 301
REMARK  5 active torsions:
REMARK  status: ('A' for Active; 'I' for Inactive)
REMARK    1  A    between atoms: C_3  and  O_4
REMARK    2  A    between atoms: C_5  and  C_17
REMARK    3  A    between atoms: C_15  and  C_20
REMARK    4  A    between atoms: C_15  and  C_23
REMARK    5  A    between atoms: C_16  and  C_17
REMARK                            x       y       z     vdW  Elec       q    Type
REMARK                         _______ _______ _______ _____ _____    ______ ____
ROOT
ATOM      1  C   UNL     1      27.446   1.074  27.299  0.00  0.00    -0.024 A 
ATOM      2  C   UNL     1      26.058   0.983  27.177  0.00  0.00    +0.000 A 
ATOM      3  C   UNL     1      25.464  -0.208  26.757  0.00  0.00    +0.074 A 
ATOM      4  C   UNL     1      26.284  -1.291  26.422  0.00  0.00    +0.008 A 
ATOM      5  C   UNL     1      27.676  -1.197  26.535  0.00  0.00    -0.049 A 
ATOM      6  C   UNL     1      28.509  -2.390  26.051  0.00  0.00    +0.058 C 
ATOM      7  C   UNL     1      30.012  -2.036  25.948  0.00  0.00    +0.018 C 
ATOM      8  C   UNL     1      30.457  -1.358  27.268  0.00  0.00    +0.003 C 
ATOM      9  C   UNL     1      32.007  -1.308  27.483  0.00  0.00    +0.012 C 
ATOM     10  C   UNL     1      32.346  -0.689  28.883  0.00  0.00    +0.024 C 
ATOM     11  C   UNL     1      31.957  -1.619  30.079  0.00  0.00    -0.014 C 
ATOM     12  C   UNL     1      31.628   0.690  29.022  0.00  0.00    -0.011 C 
ATOM     13  C   UNL     1      30.094   0.635  28.770  0.00  0.00    +0.010 C 
ATOM     14  C   UNL     1      29.779   0.038  27.370  0.00  0.00    +0.030 C 
ATOM     15  C   UNL     1      28.267  -0.039  27.064  0.00  0.00    -0.048 A 
ENDROOT
BRANCH  10  16
ATOM     16  C   UNL     1      33.848  -0.480  29.020  0.00  0.00    +0.109 C 
ATOM     17  N   UNL     1      34.718  -1.374  28.675  0.00  0.00    -0.296 N 
ATOM     18  H   UNL     1      34.486  -2.300  28.284  0.00  0.00    +0.187 HD
ATOM     19  C   UNL     1      36.072  -0.922  28.900  0.00  0.00    +0.156 C 
ATOM     20  C   UNL     1      35.759   0.496  29.473  0.00  0.00    +0.150 C 
ATOM     21  N   UNL     1      34.314   0.605  29.482  0.00  0.00    -0.273 NA
ENDBRANCH  10  16
BRANCH   3  22
ATOM     22  O   UNL     1      24.071  -0.288  26.675  0.00  0.00    -0.339 OA
ATOM     23  H   UNL     1      23.743  -1.136  26.396  0.00  0.00    +0.246 HD
ENDBRANCH   3  22
BRANCH   9  24
ATOM     24  C   UNL     1      32.784  -0.607  26.320  0.00  0.00    +0.183 C 
BRANCH  24  25
ATOM     25  C   UNL     1      32.710   0.847  26.395  0.00  0.00    +0.089 C 
ATOM     26  N   UNL     1      32.652   2.002  26.456  0.00  0.00    -0.304 NA
ENDBRANCH  24  25
ENDBRANCH   9  24
TORSDOF 4
ENDMDL
MODEL 11
REMARK minimizedAffinity -4.34492636
REMARK minimizedRMSD -1
REMARK  Name = 301
REMARK  5 active torsions:
REMARK  status: ('A' for Active; 'I' for Inactive)
REMARK    1  A    between atoms: C_3  and  O_4
REMARK    2  A    between atoms: C_5  and  C_17
REMARK    3  A    between atoms: C_15  and  C_20
REMARK    4  A    between atoms: C_15  and  C_23
REMARK    5  A    between atoms: C_16  and  C_17
REMARK                            x       y       z     vdW  Elec       q    Type
REMARK                         _______ _______ _______ _____ _____    ______ ____
ROOT
ATOM      1  C   UNL     1      29.747  -0.066  26.450  0.00  0.00    -0.024 A 
ATOM      2  C   UNL     1      28.510   0.573  26.349  0.00  0.00    +0.000 A 
ATOM      3  C   UNL     1      28.083   1.442  27.354  0.00  0.00    +0.074 A 
ATOM      4  C   UNL     1      28.894   1.628  28.478  0.00  0.00    +0.008 A 
ATOM      5  C   UNL     1      30.130   0.978  28.584  0.00  0.00    -0.049 A 
ATOM      6  C   UNL     1      30.913   1.153  29.891  0.00  0.00    +0.058 C 
ATOM      7  C   UNL     1      32.090   0.153  29.992  0.00  0.00    +0.018 C 
ATOM      8  C   UNL     1      32.903   0.206  28.675  0.00  0.00    +0.003 C 
ATOM      9  C   UNL     1      34.331  -0.429  28.767  0.00  0.00    +0.012 C 
ATOM     10  C   UNL     1      35.102  -0.242  27.413  0.00  0.00    +0.024 C 
ATOM     11  C   UNL     1      35.505   1.242  27.133  0.00  0.00    -0.014 C 
ATOM     12  C   UNL     1      34.224  -0.788  26.244  0.00  0.00    -0.011 C 
ATOM     13  C   UNL     1      32.795  -0.179  26.185  0.00  0.00    +0.010 C 
ATOM     14  C   UNL     1      32.040  -0.391  27.527  0.00  0.00    +0.030 C 
ATOM     15  C   UNL     1      30.611   0.195  27.524  0.00  0.00    -0.048 A 
ENDROOT
BRANCH  10  16
ATOM     16  C   UNL     1      36.418  -1.008  27.443  0.00  0.00    +0.109 C 
ATOM     17  N   UNL     1      37.035  -1.388  26.371  0.00  0.00    -0.296 N 
ATOM     18  H   UNL     1      36.704  -1.218  25.410  0.00  0.00    +0.187 HD
ATOM     19  C   UNL     1      38.263  -2.088  26.677  0.00  0.00    +0.156 C 
ATOM     20  C   UNL     1      38.200  -2.011  28.235  0.00  0.00    +0.150 C 
ATOM     21  N   UNL     1      36.974  -1.303  28.543  0.00  0.00    -0.273 NA
ENDBRANCH  10  16
BRANCH   3  22
ATOM     22  O   UNL     1      26.856   2.098  27.217  0.00  0.00    -0.339 OA
ATOM     23  H   UNL     1      26.642   2.684  27.935  0.00  0.00    +0.246 HD
ENDBRANCH   3  22
BRANCH   9  24
ATOM     24  C   UNL     1      34.332  -1.917  29.249  0.00  0.00    +0.183 C 
BRANCH  24  25
ATOM     25  C   UNL     1      33.528  -2.782  28.396  0.00  0.00    +0.089 C 
ATOM     26  N   UNL     1      32.887  -3.468  27.719  0.00  0.00    -0.304 NA
ENDBRANCH  24  25
ENDBRANCH   9  24
TORSDOF 4
ENDMDL
MODEL 12
REMARK minimizedAffinity -4.0462842
REMARK minimizedRMSD -1
REMARK  Name = 301
REMARK  5 active torsions:
REMARK  status: ('A' for Active; 'I' for Inactive)
REMARK    1  A    between atoms: C_3  and  O_4
REMARK    2  A    between atoms: C_5  and  C_17
REMARK    3  A    between atoms: C_15  and  C_20
REMARK    4  A    between atoms: C_15  and  C_23
REMARK    5  A    between atoms: C_16  and  C_17
REMARK                            x       y       z     vdW  Elec       q    Type
REMARK                         _______ _______ _______ _____ _____    ______ ____
ROOT
ATOM      1  C   UNL     1      32.905  -4.167  23.764  0.00  0.00    -0.024 A 
ATOM      2  C   UNL     1      32.980  -4.831  22.537  0.00  0.00    +0.000 A 
ATOM      3  C   UNL     1      32.391  -4.277  21.400  0.00  0.00    +0.074 A 
ATOM      4  C   UNL     1      31.693  -3.071  21.518  0.00  0.00    +0.008 A 
ATOM      5  C   UNL     1      31.609  -2.411  22.750  0.00  0.00    -0.049 A 
ATOM      6  C   UNL     1      30.740  -1.149  22.820  0.00  0.00    +0.058 C 
ATOM      7  C   UNL     1      30.492  -0.704  24.281  0.00  0.00    +0.018 C 
ATOM      8  C   UNL     1      31.849  -0.664  25.027  0.00  0.00    +0.003 C 
ATOM      9  C   UNL     1      31.829   0.141  26.370  0.00  0.00    +0.012 C 
ATOM     10  C   UNL     1      33.266   0.198  26.996  0.00  0.00    +0.024 C 
ATOM     11  C   UNL     1      34.258   1.091  26.182  0.00  0.00    -0.014 C 
ATOM     12  C   UNL     1      33.829  -1.253  27.119  0.00  0.00    -0.011 C 
ATOM     13  C   UNL     1      33.809  -2.056  25.788  0.00  0.00    +0.010 C 
ATOM     14  C   UNL     1      32.375  -2.118  25.193  0.00  0.00    +0.030 C 
ATOM     15  C   UNL     1      32.296  -2.908  23.868  0.00  0.00    -0.048 A 
ENDROOT
BRANCH  10  16
ATOM     16  C   UNL     1      33.216   0.828  28.381  0.00  0.00    +0.109 C 
ATOM     17  N   UNL     1      32.140   1.346  28.880  0.00  0.00    -0.296 N 
ATOM     18  H   UNL     1      31.229   1.386  28.400  0.00  0.00    +0.187 HD
ATOM     19  C   UNL     1      32.361   1.866  30.211  0.00  0.00    +0.156 C 
ATOM     20  C   UNL     1      33.872   1.507  30.360  0.00  0.00    +0.150 C 
ATOM     21  N   UNL     1      34.247   0.863  29.117  0.00  0.00    -0.273 NA
ENDBRANCH  10  16
BRANCH   3  22
ATOM     22  O   UNL     1      32.507  -4.942  20.175  0.00  0.00    -0.339 OA
ATOM     23  H   UNL     1      32.093  -4.494  19.446  0.00  0.00    +0.246 HD
ENDBRANCH   3  22
BRANCH   9  24
ATOM     24  C   UNL     1      30.756  -0.359  27.392  0.00  0.00    +0.183 C 
BRANCH  24  25
ATOM     25  C   UNL     1      29.483   0.337  27.252  0.00  0.00    +0.089 C 
ATOM     26  N   UNL     1      28.473   0.892  27.140  0.00  0.00    -0.304 NA
ENDBRANCH  24  25
ENDBRANCH   9  24
TORSDOF 4
ENDMDL
MODEL 13
REMARK minimizedAffinity -3.72917128
REMARK minimizedRMSD -1
REMARK  Name = 301
REMARK  5 active torsions:
REMARK  status: ('A' for Active; 'I' for Inactive)
REMARK    1  A    between atoms: C_3  and  O_4
REMARK    2  A    between atoms: C_5  and  C_17
REMARK    3  A    between atoms: C_15  and  C_20
REMARK    4  A    between atoms: C_15  and  C_23
REMARK    5  A    between atoms: C_16  and  C_17
REMARK                            x       y       z     vdW  Elec       q    Type
REMARK                         _______ _______ _______ _____ _____    ______ ____
ROOT
ATOM      1  C   UNL     1      30.371   0.224  28.421  0.00  0.00    -0.024 A 
ATOM      2  C   UNL     1      30.429   1.072  29.529  0.00  0.00    +0.000 A 
ATOM      3  C   UNL     1      31.653   1.353  30.137  0.00  0.00    +0.074 A 
ATOM      4  C   UNL     1      32.810   0.740  29.646  0.00  0.00    +0.008 A 
ATOM      5  C   UNL     1      32.750  -0.120  28.542  0.00  0.00    -0.049 A 
ATOM      6  C   UNL     1      34.043  -0.832  28.128  0.00  0.00    +0.058 C 
ATOM      7  C   UNL     1      33.772  -1.965  27.108  0.00  0.00    +0.018 C 
ATOM      8  C   UNL     1      32.883  -1.407  25.969  0.00  0.00    +0.003 C 
ATOM      9  C   UNL     1      32.854  -2.289  24.675  0.00  0.00    +0.012 C 
ATOM     10  C   UNL     1      32.003  -1.593  23.557  0.00  0.00    +0.024 C 
ATOM     11  C   UNL     1      32.683  -0.313  22.972  0.00  0.00    -0.014 C 
ATOM     12  C   UNL     1      30.595  -1.238  24.129  0.00  0.00    -0.011 C 
ATOM     13  C   UNL     1      30.636  -0.394  25.435  0.00  0.00    +0.010 C 
ATOM     14  C   UNL     1      31.466  -1.108  26.537  0.00  0.00    +0.030 C 
ATOM     15  C   UNL     1      31.539  -0.313  27.860  0.00  0.00    -0.048 A 
ENDROOT
BRANCH  10  16
ATOM     16  C   UNL     1      31.831  -2.526  22.365  0.00  0.00    +0.109 C 
ATOM     17  N   UNL     1      30.675  -2.822  21.865  0.00  0.00    -0.296 N 
ATOM     18  H   UNL     1      29.773  -2.467  22.217  0.00  0.00    +0.187 HD
ATOM     19  C   UNL     1      30.791  -3.719  20.737  0.00  0.00    +0.156 C 
ATOM     20  C   UNL     1      32.344  -3.867  20.708  0.00  0.00    +0.150 C 
ATOM     21  N   UNL     1      32.836  -3.053  21.802  0.00  0.00    -0.273 NA
ENDBRANCH  10  16
BRANCH   3  22
ATOM     22  O   UNL     1      31.693   2.232  31.223  0.00  0.00    -0.339 OA
ATOM     23  H   UNL     1      32.563   2.385  31.573  0.00  0.00    +0.246 HD
ENDBRANCH   3  22
BRANCH   9  24
ATOM     24  C   UNL     1      32.408  -3.767  24.928  0.00  0.00    +0.183 C 
BRANCH  24  25
ATOM     25  C   UNL     1      33.038  -4.348  26.106  0.00  0.00    +0.089 C 
ATOM     26  N   UNL     1      33.538  -4.811  27.042  0.00  0.00    -0.304 NA
ENDBRANCH  24  25
ENDBRANCH   9  24
TORSDOF 4
ENDMDL
MODEL 14
REMARK minimizedAffinity -3.41850948
REMARK minimizedRMSD -1
REMARK  Name = 301
REMARK  5 active torsions:
REMARK  status: ('A' for Active; 'I' for Inactive)
REMARK    1  A    between atoms: C_3  and  O_4
REMARK    2  A    between atoms: C_5  and  C_17
REMARK    3  A    between atoms: C_15  and  C_20
REMARK    4  A    between atoms: C_15  and  C_23
REMARK    5  A    between atoms: C_16  and  C_17
REMARK                            x       y       z     vdW  Elec       q    Type
REMARK                         _______ _______ _______ _____ _____    ______ ____
ROOT
ATOM      1  C   UNL     1      28.530   0.257  26.302  0.00  0.00    -0.024 A 
ATOM      2  C   UNL     1      28.032   1.276  27.118  0.00  0.00    +0.000 A 
ATOM      3  C   UNL     1      28.849   1.869  28.080  0.00  0.00    +0.074 A 
ATOM      4  C   UNL     1      30.157   1.400  28.240  0.00  0.00    +0.008 A 
ATOM      5  C   UNL     1      30.653   0.372  27.429  0.00  0.00    -0.049 A 
ATOM      6  C   UNL     1      32.060  -0.156  27.735  0.00  0.00    +0.058 C 
ATOM      7  C   UNL     1      32.355  -1.473  26.977  0.00  0.00    +0.018 C 
ATOM      8  C   UNL     1      31.986  -1.283  25.485  0.00  0.00    +0.003 C 
ATOM      9  C   UNL     1      32.592  -2.360  24.523  0.00  0.00    +0.012 C 
ATOM     10  C   UNL     1      32.236  -2.025  23.033  0.00  0.00    +0.024 C 
ATOM     11  C   UNL     1      32.976  -0.759  22.491  0.00  0.00    -0.014 C 
ATOM     12  C   UNL     1      30.691  -1.837  22.904  0.00  0.00    -0.011 C 
ATOM     13  C   UNL     1      30.095  -0.793  23.890  0.00  0.00    +0.010 C 
ATOM     14  C   UNL     1      30.441  -1.152  25.362  0.00  0.00    +0.030 C 
ATOM     15  C   UNL     1      29.870  -0.147  26.387  0.00  0.00    -0.048 A 
ENDROOT
BRANCH  10  16
ATOM     16  C   UNL     1      32.674  -3.159  22.116  0.00  0.00    +0.109 C 
ATOM     17  N   UNL     1      33.697  -3.073  21.329  0.00  0.00    -0.296 N 
ATOM     18  H   UNL     1      34.305  -2.244  21.243  0.00  0.00    +0.187 HD
ATOM     19  C   UNL     1      33.900  -4.289  20.575  0.00  0.00    +0.156 C 
ATOM     20  C   UNL     1      32.708  -5.123  21.140  0.00  0.00    +0.150 C 
ATOM     21  N   UNL     1      32.042  -4.258  22.094  0.00  0.00    -0.273 NA
ENDBRANCH  10  16
BRANCH   3  22
ATOM     22  O   UNL     1      28.341   2.911  28.863  0.00  0.00    -0.339 OA
ATOM     23  H   UNL     1      28.963   3.273  29.484  0.00  0.00    +0.246 HD
ENDBRANCH   3  22
BRANCH   9  24
ATOM     24  C   UNL     1      32.221  -3.830  24.906  0.00  0.00    +0.183 C 
BRANCH  24  25
ATOM     25  C   UNL     1      32.948  -4.303  26.077  0.00  0.00    +0.089 C 
ATOM     26  N   UNL     1      33.527  -4.676  27.008  0.00  0.00    -0.304 NA
ENDBRANCH  24  25
ENDBRANCH   9  24
TORSDOF 4
ENDMDL
MODEL 15
REMARK minimizedAffinity -2.77979136
REMARK minimizedRMSD -1
REMARK  Name = 301
REMARK  5 active torsions:
REMARK  status: ('A' for Active; 'I' for Inactive)
REMARK    1  A    between atoms: C_3  and  O_4
REMARK    2  A    between atoms: C_5  and  C_17
REMARK    3  A    between atoms: C_15  and  C_20
REMARK    4  A    between atoms: C_15  and  C_23
REMARK    5  A    between atoms: C_16  and  C_17
REMARK                            x       y       z     vdW  Elec       q    Type
REMARK                         _______ _______ _______ _____ _____    ______ ____
ROOT
ATOM      1  C   UNL     1      32.620  -1.552  22.904  0.00  0.00    -0.024 A 
ATOM      2  C   UNL     1      32.314  -1.767  24.249  0.00  0.00    +0.000 A 
ATOM      3  C   UNL     1      32.319  -3.059  24.775  0.00  0.00    +0.074 A 
ATOM      4  C   UNL     1      32.594  -4.135  23.924  0.00  0.00    +0.008 A 
ATOM      5  C   UNL     1      32.890  -3.921  22.572  0.00  0.00    -0.049 A 
ATOM      6  C   UNL     1      33.079  -5.156  21.683  0.00  0.00    +0.058 C 
ATOM      7  C   UNL     1      33.095  -4.784  20.181  0.00  0.00    +0.018 C 
ATOM      8  C   UNL     1      34.082  -3.609  19.969  0.00  0.00    +0.003 C 
ATOM      9  C   UNL     1      34.516  -3.385  18.481  0.00  0.00    +0.012 C 
ATOM     10  C   UNL     1      35.581  -2.238  18.388  0.00  0.00    +0.024 C 
ATOM     11  C   UNL     1      36.967  -2.633  18.996  0.00  0.00    -0.014 C 
ATOM     12  C   UNL     1      35.028  -0.964  19.100  0.00  0.00    -0.011 C 
ATOM     13  C   UNL     1      34.565  -1.207  20.565  0.00  0.00    +0.010 C 
ATOM     14  C   UNL     1      33.495  -2.332  20.635  0.00  0.00    +0.030 C 
ATOM     15  C   UNL     1      32.997  -2.614  22.070  0.00  0.00    -0.048 A 
ENDROOT
BRANCH  10  16
ATOM     16  C   UNL     1      35.872  -1.902  16.931  0.00  0.00    +0.109 C 
ATOM     17  N   UNL     1      36.147  -2.802  16.043  0.00  0.00    -0.296 N 
ATOM     18  H   UNL     1      36.199  -3.815  16.228  0.00  0.00    +0.187 HD
ATOM     19  C   UNL     1      36.374  -2.220  14.740  0.00  0.00    +0.156 C 
ATOM     20  C   UNL     1      36.152  -0.719  15.106  0.00  0.00    +0.150 C 
ATOM     21  N   UNL     1      35.849  -0.702  16.524  0.00  0.00    -0.273 NA
ENDBRANCH  10  16
BRANCH   3  22
ATOM     22  O   UNL     1      32.043  -3.249  26.132  0.00  0.00    -0.339 OA
ATOM     23  H   UNL     1      32.081  -4.155  26.417  0.00  0.00    +0.246 HD
ENDBRANCH   3  22
BRANCH   9  24
ATOM     24  C   UNL     1      33.318  -3.163  17.500  0.00  0.00    +0.183 C 
BRANCH  24  25
ATOM     25  C   UNL     1      32.026  -3.387  18.136  0.00  0.00    +0.089 C 
ATOM     26  N   UNL     1      31.000  -3.565  18.643  0.00  0.00    -0.304 NA
ENDBRANCH  24  25
ENDBRANCH   9  24
TORSDOF 4
ENDMDL
MODEL 16
REMARK minimizedAffinity -2.60701919
REMARK minimizedRMSD -1
REMARK  Name = 301
REMARK  5 active torsions:
REMARK  status: ('A' for Active; 'I' for Inactive)
REMARK    1  A    between atoms: C_3  and  O_4
REMARK    2  A    between atoms: C_5  and  C_17
REMARK    3  A    between atoms: C_15  and  C_20
REMARK    4  A    between atoms: C_15  and  C_23
REMARK    5  A    between atoms: C_16  and  C_17
REMARK                            x       y       z     vdW  Elec       q    Type
REMARK                         _______ _______ _______ _____ _____    ______ ____
ROOT
ATOM      1  C   UNL     1      33.391   1.047  28.795  0.00  0.00    -0.024 A 
ATOM      2  C   UNL     1      33.320   1.611  30.071  0.00  0.00    +0.000 A 
ATOM      3  C   UNL     1      32.102   1.664  30.750  0.00  0.00    +0.074 A 
ATOM      4  C   UNL     1      30.952   1.183  30.116  0.00  0.00    +0.008 A 
ATOM      5  C   UNL     1      31.021   0.627  28.833  0.00  0.00    -0.049 A 
ATOM      6  C   UNL     1      29.703   0.216  28.166  0.00  0.00    +0.058 C 
ATOM      7  C   UNL     1      29.893  -0.089  26.661  0.00  0.00    +0.018 C 
ATOM      8  C   UNL     1      31.093  -1.055  26.496  0.00  0.00    +0.003 C 
ATOM      9  C   UNL     1      31.165  -1.771  25.105  0.00  0.00    +0.012 C 
ATOM     10  C   UNL     1      32.357  -2.790  25.075  0.00  0.00    +0.024 C 
ATOM     11  C   UNL     1      32.125  -4.038  25.989  0.00  0.00    -0.014 C 
ATOM     12  C   UNL     1      33.670  -2.056  25.494  0.00  0.00    -0.011 C 
ATOM     13  C   UNL     1      33.575  -1.316  26.858  0.00  0.00    +0.010 C 
ATOM     14  C   UNL     1      32.401  -0.297  26.862  0.00  0.00    +0.030 C 
ATOM     15  C   UNL     1      32.262   0.470  28.196  0.00  0.00    -0.048 A 
ENDROOT
BRANCH  10  16
ATOM     16  C   UNL     1      32.534  -3.357  23.673  0.00  0.00    +0.109 C 
ATOM     17  N   UNL     1      33.055  -2.680  22.701  0.00  0.00    -0.296 N 
ATOM     18  H   UNL     1      33.394  -1.709  22.775  0.00  0.00    +0.187 HD
ATOM     19  C   UNL     1      33.115  -3.452  21.480  0.00  0.00    +0.156 C 
ATOM     20  C   UNL     1      32.484  -4.780  22.005  0.00  0.00    +0.150 C 
ATOM     21  N   UNL     1      32.174  -4.542  23.401  0.00  0.00    -0.273 NA
ENDBRANCH  10  16
BRANCH   3  22
ATOM     22  O   UNL     1      32.060   2.202  32.040  0.00  0.00    -0.339 OA
ATOM     23  H   UNL     1      31.198   2.189  32.442  0.00  0.00    +0.246 HD
ENDBRANCH   3  22
BRANCH   9  24
ATOM     24  C   UNL     1      31.192  -0.789  23.888  0.00  0.00    +0.183 C 
BRANCH  24  25
ATOM     25  C   UNL     1      32.191   0.261  24.040  0.00  0.00    +0.089 C 
ATOM     26  N   UNL     1      32.985   1.096  24.163  0.00  0.00    -0.304 NA
ENDBRANCH  24  25
ENDBRANCH   9  24
TORSDOF 4
ENDMDL
MODEL 17
REMARK minimizedAffinity -2.26028061
REMARK minimizedRMSD -1
REMARK  Name = 301
REMARK  5 active torsions:
REMARK  status: ('A' for Active; 'I' for Inactive)
REMARK    1  A    between atoms: C_3  and  O_4
REMARK    2  A    between atoms: C_5  and  C_17
REMARK    3  A    between atoms: C_15  and  C_20
REMARK    4  A    between atoms: C_15  and  C_23
REMARK    5  A    between atoms: C_16  and  C_17
REMARK                            x       y       z     vdW  Elec       q    Type
REMARK                         _______ _______ _______ _____ _____    ______ ____
ROOT
ATOM      1  C   UNL     1      32.621   1.151  26.899  0.00  0.00    -0.024 A 
ATOM      2  C   UNL     1      33.220   2.083  27.749  0.00  0.00    +0.000 A 
ATOM      3  C   UNL     1      34.436   1.793  28.368  0.00  0.00    +0.074 A 
ATOM      4  C   UNL     1      35.021   0.540  28.157  0.00  0.00    +0.008 A 
ATOM      5  C   UNL     1      34.416  -0.399  27.313  0.00  0.00    -0.049 A 
ATOM      6  C   UNL     1      35.065  -1.785  27.214  0.00  0.00    +0.058 C 
ATOM      7  C   UNL     1      34.140  -2.801  26.503  0.00  0.00    +0.018 C 
ATOM      8  C   UNL     1      33.626  -2.171  25.185  0.00  0.00    +0.003 C 
ATOM      9  C   UNL     1      33.020  -3.196  24.167  0.00  0.00    +0.012 C 
ATOM     10  C   UNL     1      32.616  -2.472  22.836  0.00  0.00    +0.024 C 
ATOM     11  C   UNL     1      33.845  -1.986  22.001  0.00  0.00    -0.014 C 
ATOM     12  C   UNL     1      31.685  -1.264  23.171  0.00  0.00    -0.011 C 
ATOM     13  C   UNL     1      32.281  -0.273  24.211  0.00  0.00    +0.010 C 
ATOM     14  C   UNL     1      32.657  -1.005  25.529  0.00  0.00    +0.030 C 
ATOM     15  C   UNL     1      33.253  -0.065  26.601  0.00  0.00    -0.048 A 
ENDROOT
BRANCH  10  16
ATOM     16  C   UNL     1      31.870  -3.430  21.917  0.00  0.00    +0.109 C 
ATOM     17  N   UNL     1      30.912  -3.052  21.134  0.00  0.00    -0.296 N 
ATOM     18  H   UNL     1      30.562  -2.085  21.057  0.00  0.00    +0.187 HD
ATOM     19  C   UNL     1      30.380  -4.154  20.364  0.00  0.00    +0.156 C 
ATOM     20  C   UNL     1      31.298  -5.292  20.910  0.00  0.00    +0.150 C 
ATOM     21  N   UNL     1      32.171  -4.661  21.879  0.00  0.00    -0.273 NA
ENDBRANCH  10  16
BRANCH   3  22
ATOM     22  O   UNL     1      35.034   2.754  29.188  0.00  0.00    -0.339 OA
ATOM     23  H   UNL     1      35.867   2.488  29.561  0.00  0.00    +0.246 HD
ENDBRANCH   3  22
BRANCH   9  24
ATOM     24  C   UNL     1      31.851  -4.054  24.754  0.00  0.00    +0.183 C 
BRANCH  24  25
ATOM     25  C   UNL     1      31.238  -3.437  25.924  0.00  0.00    +0.089 C 
ATOM     26  N   UNL     1      30.751  -2.949  26.854  0.00  0.00    -0.304 NA
ENDBRANCH  24  25
ENDBRANCH   9  24
TORSDOF 4
ENDMDL
MODEL 18
REMARK minimizedAffinity 0.342340231
REMARK minimizedRMSD -1
REMARK  Name = 301
REMARK  5 active torsions:
REMARK  status: ('A' for Active; 'I' for Inactive)
REMARK    1  A    between atoms: C_3  and  O_4
REMARK    2  A    between atoms: C_5  and  C_17
REMARK    3  A    between atoms: C_15  and  C_20
REMARK    4  A    between atoms: C_15  and  C_23
REMARK    5  A    between atoms: C_16  and  C_17
REMARK                            x       y       z     vdW  Elec       q    Type
REMARK                         _______ _______ _______ _____ _____    ______ ____
ROOT
ATOM      1  C   UNL     1      31.612   1.785  27.884  0.00  0.00    -0.024 A 
ATOM      2  C   UNL     1      31.893   2.535  29.028  0.00  0.00    +0.000 A 
ATOM      3  C   UNL     1      32.144   1.898  30.243  0.00  0.00    +0.074 A 
ATOM      4  C   UNL     1      32.069   0.502  30.304  0.00  0.00    +0.008 A 
ATOM      5  C   UNL     1      31.777  -0.249  29.159  0.00  0.00    -0.049 A 
ATOM      6  C   UNL     1      31.612  -1.764  29.329  0.00  0.00    +0.058 C 
ATOM      7  C   UNL     1      30.998  -2.419  28.068  0.00  0.00    +0.018 C 
ATOM      8  C   UNL     1      31.783  -1.934  26.823  0.00  0.00    +0.003 C 
ATOM      9  C   UNL     1      31.559  -2.797  25.536  0.00  0.00    +0.012 C 
ATOM     10  C   UNL     1      32.464  -2.280  24.365  0.00  0.00    +0.024 C 
ATOM     11  C   UNL     1      33.986  -2.558  24.592  0.00  0.00    -0.014 C 
ATOM     12  C   UNL     1      32.224  -0.750  24.168  0.00  0.00    -0.011 C 
ATOM     13  C   UNL     1      32.411   0.093  25.461  0.00  0.00    +0.010 C 
ATOM     14  C   UNL     1      31.492  -0.422  26.604  0.00  0.00    +0.030 C 
ATOM     15  C   UNL     1      31.637   0.383  27.914  0.00  0.00    -0.048 A 
ENDROOT
BRANCH  10  16
ATOM     16  C   UNL     1      32.121  -3.005  23.071  0.00  0.00    +0.109 C 
ATOM     17  N   UNL     1      31.529  -2.426  22.076  0.00  0.00    -0.296 N 
ATOM     18  H   UNL     1      31.234  -1.439  22.060  0.00  0.00    +0.187 HD
ATOM     19  C   UNL     1      31.329  -3.333  20.968  0.00  0.00    +0.156 C 
ATOM     20  C   UNL     1      31.973  -4.613  21.587  0.00  0.00    +0.150 C 
ATOM     21  N   UNL     1      32.416  -4.227  22.913  0.00  0.00    -0.273 NA
ENDBRANCH  10  16
BRANCH   3  22
ATOM     22  O   UNL     1      32.456   2.666  31.369  0.00  0.00    -0.339 OA
ATOM     23  H   UNL     1      32.629   2.159  32.154  0.00  0.00    +0.246 HD
ENDBRANCH   3  22
BRANCH   9  24
ATOM     24  C   UNL     1      30.058  -2.926  25.114  0.00  0.00    +0.183 C 
BRANCH  24  25
ATOM     25  C   UNL     1      29.146  -2.781  26.242  0.00  0.00    +0.089 C 
ATOM     26  N   UNL     1      28.423  -2.663  27.138  0.00  0.00    -0.304 NA
ENDBRANCH  24  25
ENDBRANCH   9  24
TORSDOF 4
ENDMDL
MODEL 19
REMARK minimizedAffinity 2.24942875
REMARK minimizedRMSD -1
REMARK  Name = 301
REMARK  5 active torsions:
REMARK  status: ('A' for Active; 'I' for Inactive)
REMARK    1  A    between atoms: C_3  and  O_4
REMARK    2  A    between atoms: C_5  and  C_17
REMARK    3  A    between atoms: C_15  and  C_20
REMARK    4  A    between atoms: C_15  and  C_23
REMARK    5  A    between atoms: C_16  and  C_17
REMARK                            x       y       z     vdW  Elec       q    Type
REMARK                         _______ _______ _______ _____ _____    ______ ____
ROOT
ATOM      1  C   UNL     1      34.994  -0.598  26.825  0.00  0.00    -0.024 A 
ATOM      2  C   UNL     1      35.702  -0.521  28.026  0.00  0.00    +0.000 A 
ATOM      3  C   UNL     1      35.159  -1.050  29.198  0.00  0.00    +0.074 A 
ATOM      4  C   UNL     1      33.882  -1.619  29.156  0.00  0.00    +0.008 A 
ATOM      5  C   UNL     1      33.168  -1.687  27.953  0.00  0.00    -0.049 A 
ATOM      6  C   UNL     1      31.735  -2.231  28.009  0.00  0.00    +0.058 C 
ATOM      7  C   UNL     1      30.970  -1.966  26.690  0.00  0.00    +0.018 C 
ATOM      8  C   UNL     1      31.851  -2.429  25.502  0.00  0.00    +0.003 C 
ATOM      9  C   UNL     1      31.079  -2.606  24.151  0.00  0.00    +0.012 C 
ATOM     10  C   UNL     1      32.038  -3.162  23.041  0.00  0.00    +0.024 C 
ATOM     11  C   UNL     1      32.465  -4.646  23.283  0.00  0.00    -0.014 C 
ATOM     12  C   UNL     1      33.301  -2.249  22.950  0.00  0.00    -0.011 C 
ATOM     13  C   UNL     1      34.038  -2.049  24.305  0.00  0.00    +0.010 C 
ATOM     14  C   UNL     1      33.077  -1.479  25.386  0.00  0.00    +0.030 C 
ATOM     15  C   UNL     1      33.759  -1.258  26.754  0.00  0.00    -0.048 A 
ENDROOT
BRANCH  10  16
ATOM     16  C   UNL     1      31.336  -3.170  21.690  0.00  0.00    +0.109 C 
ATOM     17  N   UNL     1      30.054  -3.045  21.562  0.00  0.00    -0.296 N 
ATOM     18  H   UNL     1      29.392  -2.934  22.345  0.00  0.00    +0.187 HD
ATOM     19  C   UNL     1      29.646  -3.077  20.176  0.00  0.00    +0.156 C 
ATOM     20  C   UNL     1      31.051  -3.252  19.517  0.00  0.00    +0.150 C 
ATOM     21  N   UNL     1      31.996  -3.295  20.615  0.00  0.00    -0.273 NA
ENDBRANCH  10  16
BRANCH   3  22
ATOM     22  O   UNL     1      35.899  -0.993  30.383  0.00  0.00    -0.339 OA
ATOM     23  H   UNL     1      35.468  -1.388  31.133  0.00  0.00    +0.246 HD
ENDBRANCH   3  22
BRANCH   9  24
ATOM     24  C   UNL     1      30.314  -1.323  23.686  0.00  0.00    +0.183 C 
BRANCH  24  25
ATOM     25  C   UNL     1      29.614  -0.663  24.781  0.00  0.00    +0.089 C 
ATOM     26  N   UNL     1      29.058  -0.137  25.650  0.00  0.00    -0.304 NA
ENDBRANCH  24  25
ENDBRANCH   9  24
TORSDOF 4
ENDMDL
