MODEL 1
REMARK minimizedAffinity -8.39330578
REMARK minimizedRMSD -1
REMARK  Name = 301
REMARK  5 active torsions:
REMARK  status: ('A' for Active; 'I' for Inactive)
REMARK    1  A    between atoms: C_3  and  O_4
REMARK    2  A    between atoms: C_5  and  C_17
REMARK    3  A    between atoms: C_15  and  C_20
REMARK    4  A    between atoms: C_15  and  C_23
REMARK    5  A    between atoms: C_16  and  C_17
REMARK                            x       y       z     vdW  Elec       q    Type
REMARK                         _______ _______ _______ _____ _____    ______ ____
ROOT
ATOM      1  C   UNL     1      27.715  -1.754  27.691  0.00  0.00    -0.024 A 
ATOM      2  C   UNL     1      26.344  -1.714  27.430  0.00  0.00    +0.000 A 
ATOM      3  C   UNL     1      25.707  -0.495  27.193  0.00  0.00    +0.074 A 
ATOM      4  C   UNL     1      26.456   0.684  27.263  0.00  0.00    +0.008 A 
ATOM      5  C   UNL     1      27.829   0.645  27.535  0.00  0.00    -0.049 A 
ATOM      6  C   UNL     1      28.559   1.984  27.696  0.00  0.00    +0.058 C 
ATOM      7  C   UNL     1      29.976   1.797  28.289  0.00  0.00    +0.018 C 
ATOM      8  C   UNL     1      30.709   0.691  27.489  0.00  0.00    +0.003 C 
ATOM      9  C   UNL     1      32.261   0.663  27.690  0.00  0.00    +0.012 C 
ATOM     10  C   UNL     1      32.913  -0.428  26.770  0.00  0.00    +0.024 C 
ATOM     11  C   UNL     1      32.864  -0.062  25.251  0.00  0.00    -0.014 C 
ATOM     12  C   UNL     1      32.203  -1.796  27.015  0.00  0.00    -0.011 C 
ATOM     13  C   UNL     1      30.658  -1.748  26.850  0.00  0.00    +0.010 C 
ATOM     14  C   UNL     1      30.028  -0.676  27.783  0.00  0.00    +0.030 C 
ATOM     15  C   UNL     1      28.491  -0.587  27.660  0.00  0.00    -0.048 A 
ENDROOT
BRANCH  10  16
ATOM     16  C   UNL     1      34.394  -0.575  27.092  0.00  0.00    +0.109 C 
ATOM     17  N   UNL     1      35.275   0.319  26.776  0.00  0.00    -0.296 N 
ATOM     18  H   UNL     1      35.068   1.201  26.283  0.00  0.00    +0.187 HD
ATOM     19  C   UNL     1      36.603  -0.060  27.202  0.00  0.00    +0.156 C 
ATOM     20  C   UNL     1      36.259  -1.432  27.863  0.00  0.00    +0.150 C 
ATOM     21  N   UNL     1      34.829  -1.598  27.700  0.00  0.00    -0.273 NA
ENDBRANCH  10  16
BRANCH   3  22
ATOM     22  O   UNL     1      24.340  -0.481  26.900  0.00  0.00    -0.339 OA
ATOM     23  H   UNL     1      23.984   0.385  26.736  0.00  0.00    +0.246 HD
ENDBRANCH   3  22
BRANCH   9  24
ATOM     24  C   UNL     1      32.703   0.520  29.184  0.00  0.00    +0.183 C 
BRANCH  24  25
ATOM     25  C   UNL     1      33.897   1.297  29.490  0.00  0.00    +0.089 C 
ATOM     26  N   UNL     1      34.847   1.912  29.734  0.00  0.00    -0.304 NA
ENDBRANCH  24  25
ENDBRANCH   9  24
TORSDOF 4
ENDMDL
MODEL 2
REMARK minimizedAffinity -8.13773346
REMARK minimizedRMSD -1
REMARK  Name = 301
REMARK  5 active torsions:
REMARK  status: ('A' for Active; 'I' for Inactive)
REMARK    1  A    between atoms: C_3  and  O_4
REMARK    2  A    between atoms: C_5  and  C_17
REMARK    3  A    between atoms: C_15  and  C_20
REMARK    4  A    between atoms: C_15  and  C_23
REMARK    5  A    between atoms: C_16  and  C_17
REMARK                            x       y       z     vdW  Elec       q    Type
REMARK                         _______ _______ _______ _____ _____    ______ ____
ROOT
ATOM      1  C   UNL     1      27.591   0.362  26.526  0.00  0.00    -0.024 A 
ATOM      2  C   UNL     1      26.208   0.427  26.705  0.00  0.00    +0.000 A 
ATOM      3  C   UNL     1      25.538  -0.586  27.392  0.00  0.00    +0.074 A 
ATOM      4  C   UNL     1      26.268  -1.683  27.860  0.00  0.00    +0.008 A 
ATOM      5  C   UNL     1      27.654  -1.754  27.672  0.00  0.00    -0.049 A 
ATOM      6  C   UNL     1      28.366  -3.035  28.123  0.00  0.00    +0.058 C 
ATOM      7  C   UNL     1      29.815  -3.104  27.584  0.00  0.00    +0.018 C 
ATOM      8  C   UNL     1      30.526  -1.762  27.890  0.00  0.00    +0.003 C 
ATOM      9  C   UNL     1      32.087  -1.813  27.780  0.00  0.00    +0.012 C 
ATOM     10  C   UNL     1      32.710  -0.435  28.197  0.00  0.00    +0.024 C 
ATOM     11  C   UNL     1      32.576  -0.135  29.726  0.00  0.00    -0.014 C 
ATOM     12  C   UNL     1      32.039   0.704  27.367  0.00  0.00    -0.011 C 
ATOM     13  C   UNL     1      30.486   0.721  27.453  0.00  0.00    +0.010 C 
ATOM     14  C   UNL     1      29.887  -0.645  27.018  0.00  0.00    +0.030 C 
ATOM     15  C   UNL     1      28.343  -0.683  27.082  0.00  0.00    -0.048 A 
ENDROOT
BRANCH  10  16
ATOM     16  C   UNL     1      34.208  -0.428  27.925  0.00  0.00    +0.109 C 
ATOM     17  N   UNL     1      34.775   0.420  27.128  0.00  0.00    -0.296 N 
ATOM     18  H   UNL     1      34.279   1.157  26.605  0.00  0.00    +0.187 HD
ATOM     19  C   UNL     1      36.204   0.216  27.053  0.00  0.00    +0.156 C 
ATOM     20  C   UNL     1      36.325  -0.991  28.036  0.00  0.00    +0.150 C 
ATOM     21  N   UNL     1      34.975  -1.266  28.487  0.00  0.00    -0.273 NA
ENDBRANCH  10  16
BRANCH   3  22
ATOM     22  O   UNL     1      24.158  -0.484  27.590  0.00  0.00    -0.339 OA
ATOM     23  H   UNL     1      23.777  -1.204  28.079  0.00  0.00    +0.246 HD
ENDBRANCH   3  22
BRANCH   9  24
ATOM     24  C   UNL     1      32.607  -2.303  26.389  0.00  0.00    +0.183 C 
BRANCH  24  25
ATOM     25  C   UNL     1      33.055  -3.690  26.417  0.00  0.00    +0.089 C 
ATOM     26  N   UNL     1      33.411  -4.791  26.441  0.00  0.00    -0.304 NA
ENDBRANCH  24  25
ENDBRANCH   9  24
TORSDOF 4
ENDMDL
MODEL 3
REMARK minimizedAffinity -5.93397856
REMARK minimizedRMSD -1
REMARK  Name = 301
REMARK  5 active torsions:
REMARK  status: ('A' for Active; 'I' for Inactive)
REMARK    1  A    between atoms: C_3  and  O_4
REMARK    2  A    between atoms: C_5  and  C_17
REMARK    3  A    between atoms: C_15  and  C_20
REMARK    4  A    between atoms: C_15  and  C_23
REMARK    5  A    between atoms: C_16  and  C_17
REMARK                            x       y       z     vdW  Elec       q    Type
REMARK                         _______ _______ _______ _____ _____    ______ ____
ROOT
ATOM      1  C   UNL     1      31.806  -2.191  22.274  0.00  0.00    -0.024 A 
ATOM      2  C   UNL     1      31.825  -3.125  21.236  0.00  0.00    +0.000 A 
ATOM      3  C   UNL     1      32.277  -4.425  21.467  0.00  0.00    +0.074 A 
ATOM      4  C   UNL     1      32.747  -4.762  22.741  0.00  0.00    +0.008 A 
ATOM      5  C   UNL     1      32.737  -3.822  23.779  0.00  0.00    -0.049 A 
ATOM      6  C   UNL     1      33.363  -4.237  25.116  0.00  0.00    +0.058 C 
ATOM      7  C   UNL     1      33.559  -3.024  26.057  0.00  0.00    +0.018 C 
ATOM      8  C   UNL     1      32.235  -2.222  26.121  0.00  0.00    +0.003 C 
ATOM      9  C   UNL     1      32.138  -1.219  27.319  0.00  0.00    +0.012 C 
ATOM     10  C   UNL     1      30.730  -0.530  27.345  0.00  0.00    +0.024 C 
ATOM     11  C   UNL     1      29.573  -1.505  27.739  0.00  0.00    -0.014 C 
ATOM     12  C   UNL     1      30.443   0.102  25.946  0.00  0.00    -0.011 C 
ATOM     13  C   UNL     1      30.579  -0.894  24.760  0.00  0.00    +0.010 C 
ATOM     14  C   UNL     1      31.987  -1.551  24.740  0.00  0.00    +0.030 C 
ATOM     15  C   UNL     1      32.178  -2.551  23.577  0.00  0.00    -0.048 A 
ENDROOT
BRANCH  10  16
ATOM     16  C   UNL     1      30.696   0.567  28.400  0.00  0.00    +0.109 C 
ATOM     17  N   UNL     1      31.045   0.372  29.630  0.00  0.00    -0.296 N 
ATOM     18  H   UNL     1      31.371  -0.528  30.013  0.00  0.00    +0.187 HD
ATOM     19  C   UNL     1      30.929   1.576  30.421  0.00  0.00    +0.156 C 
ATOM     20  C   UNL     1      30.415   2.543  29.308  0.00  0.00    +0.150 C 
ATOM     21  N   UNL     1      30.323   1.742  28.104  0.00  0.00    -0.273 NA
ENDBRANCH  10  16
BRANCH   3  22
ATOM     22  O   UNL     1      32.256  -5.354  20.423  0.00  0.00    -0.339 OA
ATOM     23  H   UNL     1      32.565  -6.221  20.663  0.00  0.00    +0.246 HD
ENDBRANCH   3  22
BRANCH   9  24
ATOM     24  C   UNL     1      33.308  -0.182  27.372  0.00  0.00    +0.183 C 
BRANCH  24  25
ATOM     25  C   UNL     1      34.290  -0.498  28.401  0.00  0.00    +0.089 C 
ATOM     26  N   UNL     1      35.071  -0.748  29.219  0.00  0.00    -0.304 NA
ENDBRANCH  24  25
ENDBRANCH   9  24
TORSDOF 4
ENDMDL
MODEL 4
REMARK minimizedAffinity -5.64712954
REMARK minimizedRMSD -1
REMARK  Name = 301
REMARK  5 active torsions:
REMARK  status: ('A' for Active; 'I' for Inactive)
REMARK    1  A    between atoms: C_3  and  O_4
REMARK    2  A    between atoms: C_5  and  C_17
REMARK    3  A    between atoms: C_15  and  C_20
REMARK    4  A    between atoms: C_15  and  C_23
REMARK    5  A    between atoms: C_16  and  C_17
REMARK                            x       y       z     vdW  Elec       q    Type
REMARK                         _______ _______ _______ _____ _____    ______ ____
ROOT
ATOM      1  C   UNL     1      34.712   0.132  27.904  0.00  0.00    -0.024 A 
ATOM      2  C   UNL     1      36.097   0.108  27.732  0.00  0.00    +0.000 A 
ATOM      3  C   UNL     1      36.707  -0.960  27.073  0.00  0.00    +0.074 A 
ATOM      4  C   UNL     1      35.913  -2.022  26.626  0.00  0.00    +0.008 A 
ATOM      5  C   UNL     1      34.524  -2.003  26.808  0.00  0.00    -0.049 A 
ATOM      6  C   UNL     1      33.737  -3.248  26.383  0.00  0.00    +0.058 C 
ATOM      7  C   UNL     1      32.284  -3.216  26.915  0.00  0.00    +0.018 C 
ATOM      8  C   UNL     1      31.659  -1.840  26.572  0.00  0.00    +0.003 C 
ATOM      9  C   UNL     1      30.097  -1.792  26.674  0.00  0.00    +0.012 C 
ATOM     10  C   UNL     1      29.561  -0.389  26.221  0.00  0.00    +0.024 C 
ATOM     11  C   UNL     1      29.721  -0.134  24.687  0.00  0.00    -0.014 C 
ATOM     12  C   UNL     1      30.297   0.726  27.028  0.00  0.00    -0.011 C 
ATOM     13  C   UNL     1      31.849   0.646  26.951  0.00  0.00    +0.010 C 
ATOM     14  C   UNL     1      32.361  -0.743  27.423  0.00  0.00    +0.030 C 
ATOM     15  C   UNL     1      33.899  -0.878  27.369  0.00  0.00    -0.048 A 
ENDROOT
BRANCH  10  16
ATOM     16  C   UNL     1      28.065  -0.283  26.484  0.00  0.00    +0.109 C 
ATOM     17  N   UNL     1      27.198  -1.080  25.946  0.00  0.00    -0.296 N 
ATOM     18  H   UNL     1      27.427  -1.848  25.298  0.00  0.00    +0.187 HD
ATOM     19  C   UNL     1      25.850  -0.770  26.367  0.00  0.00    +0.156 C 
ATOM     20  C   UNL     1      26.164   0.434  27.309  0.00  0.00    +0.150 C 
ATOM     21  N   UNL     1      27.603   0.605  27.261  0.00  0.00    -0.273 NA
ENDBRANCH  10  16
BRANCH   3  22
ATOM     22  O   UNL     1      38.092  -0.948  26.882  0.00  0.00    -0.339 OA
ATOM     23  H   UNL     1      38.429  -1.702  26.412  0.00  0.00    +0.246 HD
ENDBRANCH   3  22
BRANCH   9  24
ATOM     24  C   UNL     1      29.541  -2.216  28.073  0.00  0.00    +0.183 C 
BRANCH  24  25
ATOM     25  C   UNL     1      28.641  -3.360  27.994  0.00  0.00    +0.089 C 
ATOM     26  N   UNL     1      27.926  -4.269  27.933  0.00  0.00    -0.304 NA
ENDBRANCH  24  25
ENDBRANCH   9  24
TORSDOF 4
ENDMDL
MODEL 5
REMARK minimizedAffinity -5.41590309
REMARK minimizedRMSD -1
REMARK  Name = 301
REMARK  5 active torsions:
REMARK  status: ('A' for Active; 'I' for Inactive)
REMARK    1  A    between atoms: C_3  and  O_4
REMARK    2  A    between atoms: C_5  and  C_17
REMARK    3  A    between atoms: C_15  and  C_20
REMARK    4  A    between atoms: C_15  and  C_23
REMARK    5  A    between atoms: C_16  and  C_17
REMARK                            x       y       z     vdW  Elec       q    Type
REMARK                         _______ _______ _______ _____ _____    ______ ____
ROOT
ATOM      1  C   UNL     1      34.793  -1.430  26.293  0.00  0.00    -0.024 A 
ATOM      2  C   UNL     1      36.143  -1.700  26.528  0.00  0.00    +0.000 A 
ATOM      3  C   UNL     1      36.722  -1.379  27.756  0.00  0.00    +0.074 A 
ATOM      4  C   UNL     1      35.940  -0.748  28.729  0.00  0.00    +0.008 A 
ATOM      5  C   UNL     1      34.589  -0.467  28.490  0.00  0.00    -0.049 A 
ATOM      6  C   UNL     1      33.827   0.318  29.564  0.00  0.00    +0.058 C 
ATOM      7  C   UNL     1      32.457   0.817  29.045  0.00  0.00    +0.018 C 
ATOM      8  C   UNL     1      31.712  -0.369  28.383  0.00  0.00    +0.003 C 
ATOM      9  C   UNL     1      30.177  -0.139  28.175  0.00  0.00    +0.012 C 
ATOM     10  C   UNL     1      29.505  -1.428  27.586  0.00  0.00    +0.024 C 
ATOM     11  C   UNL     1      29.446  -2.613  28.604  0.00  0.00    -0.014 C 
ATOM     12  C   UNL     1      30.275  -1.865  26.300  0.00  0.00    -0.011 C 
ATOM     13  C   UNL     1      31.804  -2.054  26.509  0.00  0.00    +0.010 C 
ATOM     14  C   UNL     1      32.455  -0.761  27.074  0.00  0.00    +0.030 C 
ATOM     15  C   UNL     1      33.978  -0.892  27.299  0.00  0.00    -0.048 A 
ENDROOT
BRANCH  10  16
ATOM     16  C   UNL     1      28.053  -1.149  27.222  0.00  0.00    +0.109 C 
ATOM     17  N   UNL     1      27.118  -1.021  28.108  0.00  0.00    -0.296 N 
ATOM     18  H   UNL     1      27.258  -1.096  29.127  0.00  0.00    +0.187 HD
ATOM     19  C   UNL     1      25.835  -0.752  27.499  0.00  0.00    +0.156 C 
ATOM     20  C   UNL     1      26.275  -0.753  26.002  0.00  0.00    +0.150 C 
ATOM     21  N   UNL     1      27.699  -1.022  26.012  0.00  0.00    -0.273 NA
ENDBRANCH  10  16
BRANCH   3  22
ATOM     22  O   UNL     1      38.066  -1.689  27.983  0.00  0.00    -0.339 OA
ATOM     23  H   UNL     1      38.383  -1.454  28.848  0.00  0.00    +0.246 HD
ENDBRANCH   3  22
BRANCH   9  24
ATOM     24  C   UNL     1      29.837   1.141  27.344  0.00  0.00    +0.183 C 
BRANCH  24  25
ATOM     25  C   UNL     1      28.898   2.019  28.030  0.00  0.00    +0.089 C 
ATOM     26  N   UNL     1      28.153   2.719  28.575  0.00  0.00    -0.304 NA
ENDBRANCH  24  25
ENDBRANCH   9  24
TORSDOF 4
ENDMDL
MODEL 6
REMARK minimizedAffinity -5.40742636
REMARK minimizedRMSD -1
REMARK  Name = 301
REMARK  5 active torsions:
REMARK  status: ('A' for Active; 'I' for Inactive)
REMARK    1  A    between atoms: C_3  and  O_4
REMARK    2  A    between atoms: C_5  and  C_17
REMARK    3  A    between atoms: C_15  and  C_20
REMARK    4  A    between atoms: C_15  and  C_23
REMARK    5  A    between atoms: C_16  and  C_17
REMARK                            x       y       z     vdW  Elec       q    Type
REMARK                         _______ _______ _______ _____ _____    ______ ____
ROOT
ATOM      1  C   UNL     1      30.052   1.418  26.242  0.00  0.00    -0.024 A 
ATOM      2  C   UNL     1      28.755   1.910  26.403  0.00  0.00    +0.000 A 
ATOM      3  C   UNL     1      27.846   1.242  27.225  0.00  0.00    +0.074 A 
ATOM      4  C   UNL     1      28.242   0.054  27.847  0.00  0.00    +0.008 A 
ATOM      5  C   UNL     1      29.539  -0.445  27.677  0.00  0.00    -0.049 A 
ATOM      6  C   UNL     1      29.864  -1.804  28.309  0.00  0.00    +0.058 C 
ATOM      7  C   UNL     1      31.209  -2.369  27.793  0.00  0.00    +0.018 C 
ATOM      8  C   UNL     1      32.290  -1.265  27.908  0.00  0.00    +0.003 C 
ATOM      9  C   UNL     1      33.764  -1.786  27.814  0.00  0.00    +0.012 C 
ATOM     10  C   UNL     1      34.776  -0.608  28.034  0.00  0.00    +0.024 C 
ATOM     11  C   UNL     1      34.792  -0.075  29.504  0.00  0.00    -0.014 C 
ATOM     12  C   UNL     1      34.435   0.553  27.047  0.00  0.00    -0.011 C 
ATOM     13  C   UNL     1      32.959   1.036  27.123  0.00  0.00    +0.010 C 
ATOM     14  C   UNL     1      31.972  -0.140  26.883  0.00  0.00    +0.030 C 
ATOM     15  C   UNL     1      30.488   0.285  26.945  0.00  0.00    -0.048 A 
ENDROOT
BRANCH  10  16
ATOM     16  C   UNL     1      36.200  -1.077  27.771  0.00  0.00    +0.109 C 
ATOM     17  N   UNL     1      36.751  -1.032  26.601  0.00  0.00    -0.296 N 
ATOM     18  H   UNL     1      36.291  -0.684  25.746  0.00  0.00    +0.187 HD
ATOM     19  C   UNL     1      38.109  -1.529  26.626  0.00  0.00    +0.156 C 
ATOM     20  C   UNL     1      38.207  -1.878  28.144  0.00  0.00    +0.150 C 
ATOM     21  N   UNL     1      36.918  -1.534  28.710  0.00  0.00    -0.273 NA
ENDBRANCH  10  16
BRANCH   3  22
ATOM     22  O   UNL     1      26.563   1.771  27.399  0.00  0.00    -0.339 OA
ATOM     23  H   UNL     1      26.008   1.267  27.984  0.00  0.00    +0.246 HD
ENDBRANCH   3  22
BRANCH   9  24
ATOM     24  C   UNL     1      34.067  -2.593  26.509  0.00  0.00    +0.183 C 
BRANCH  24  25
ATOM     25  C   UNL     1      33.582  -3.966  26.576  0.00  0.00    +0.089 C 
ATOM     26  N   UNL     1      33.194  -5.055  26.630  0.00  0.00    -0.304 NA
ENDBRANCH  24  25
ENDBRANCH   9  24
TORSDOF 4
ENDMDL
MODEL 7
REMARK minimizedAffinity -5.31893969
REMARK minimizedRMSD -1
REMARK  Name = 301
REMARK  5 active torsions:
REMARK  status: ('A' for Active; 'I' for Inactive)
REMARK    1  A    between atoms: C_3  and  O_4
REMARK    2  A    between atoms: C_5  and  C_17
REMARK    3  A    between atoms: C_15  and  C_20
REMARK    4  A    between atoms: C_15  and  C_23
REMARK    5  A    between atoms: C_16  and  C_17
REMARK                            x       y       z     vdW  Elec       q    Type
REMARK                         _______ _______ _______ _____ _____    ______ ____
ROOT
ATOM      1  C   UNL     1      33.657  -1.884  20.642  0.00  0.00    -0.024 A 
ATOM      2  C   UNL     1      33.604  -2.270  19.301  0.00  0.00    +0.000 A 
ATOM      3  C   UNL     1      32.964  -3.454  18.934  0.00  0.00    +0.074 A 
ATOM      4  C   UNL     1      32.415  -4.265  19.933  0.00  0.00    +0.008 A 
ATOM      5  C   UNL     1      32.478  -3.883  21.279  0.00  0.00    -0.049 A 
ATOM      6  C   UNL     1      31.945  -4.873  22.322  0.00  0.00    +0.058 C 
ATOM      7  C   UNL     1      32.350  -4.465  23.759  0.00  0.00    +0.018 C 
ATOM      8  C   UNL     1      32.003  -2.970  23.969  0.00  0.00    +0.003 C 
ATOM      9  C   UNL     1      31.972  -2.514  25.466  0.00  0.00    +0.012 C 
ATOM     10  C   UNL     1      31.522  -1.015  25.573  0.00  0.00    +0.024 C 
ATOM     11  C   UNL     1      30.016  -0.796  25.213  0.00  0.00    -0.014 C 
ATOM     12  C   UNL     1      32.426  -0.141  24.648  0.00  0.00    -0.011 C 
ATOM     13  C   UNL     1      32.480  -0.625  23.172  0.00  0.00    +0.010 C 
ATOM     14  C   UNL     1      32.946  -2.105  23.085  0.00  0.00    +0.030 C 
ATOM     15  C   UNL     1      33.020  -2.639  21.637  0.00  0.00    -0.048 A 
ENDROOT
BRANCH  10  16
ATOM     16  C   UNL     1      31.658  -0.522  27.007  0.00  0.00    +0.109 C 
ATOM     17  N   UNL     1      32.443   0.450  27.345  0.00  0.00    -0.296 N 
ATOM     18  H   UNL     1      33.045   0.975  26.693  0.00  0.00    +0.187 HD
ATOM     19  C   UNL     1      32.379   0.724  28.763  0.00  0.00    +0.156 C 
ATOM     20  C   UNL     1      31.330  -0.358  29.169  0.00  0.00    +0.150 C 
ATOM     21  N   UNL     1      30.988  -1.052  27.943  0.00  0.00    -0.273 NA
ENDBRANCH  10  16
BRANCH   3  22
ATOM     22  O   UNL     1      32.893  -3.805  17.582  0.00  0.00    -0.339 OA
ATOM     23  H   UNL     1      32.428  -4.617  17.412  0.00  0.00    +0.246 HD
ENDBRANCH   3  22
BRANCH   9  24
ATOM     24  C   UNL     1      33.303  -2.790  26.240  0.00  0.00    +0.183 C 
BRANCH  24  25
ATOM     25  C   UNL     1      33.336  -4.119  26.837  0.00  0.00    +0.089 C 
ATOM     26  N   UNL     1      33.365  -5.176  27.310  0.00  0.00    -0.304 NA
ENDBRANCH  24  25
ENDBRANCH   9  24
TORSDOF 4
ENDMDL
MODEL 8
REMARK minimizedAffinity -5.1780839
REMARK minimizedRMSD -1
REMARK  Name = 301
REMARK  5 active torsions:
REMARK  status: ('A' for Active; 'I' for Inactive)
REMARK    1  A    between atoms: C_3  and  O_4
REMARK    2  A    between atoms: C_5  and  C_17
REMARK    3  A    between atoms: C_15  and  C_20
REMARK    4  A    between atoms: C_15  and  C_23
REMARK    5  A    between atoms: C_16  and  C_17
REMARK                            x       y       z     vdW  Elec       q    Type
REMARK                         _______ _______ _______ _____ _____    ______ ____
ROOT
ATOM      1  C   UNL     1      32.670  -1.779  22.669  0.00  0.00    -0.024 A 
ATOM      2  C   UNL     1      32.326  -2.247  23.939  0.00  0.00    +0.000 A 
ATOM      3  C   UNL     1      32.335  -3.615  24.211  0.00  0.00    +0.074 A 
ATOM      4  C   UNL     1      32.653  -4.508  23.183  0.00  0.00    +0.008 A 
ATOM      5  C   UNL     1      32.988  -4.039  21.906  0.00  0.00    -0.049 A 
ATOM      6  C   UNL     1      33.224  -5.083  20.808  0.00  0.00    +0.058 C 
ATOM      7  C   UNL     1      33.280  -4.433  19.404  0.00  0.00    +0.018 C 
ATOM      8  C   UNL     1      34.255  -3.230  19.450  0.00  0.00    +0.003 C 
ATOM      9  C   UNL     1      34.730  -2.725  18.046  0.00  0.00    +0.012 C 
ATOM     10  C   UNL     1      35.780  -1.571  18.206  0.00  0.00    +0.024 C 
ATOM     11  C   UNL     1      37.152  -2.060  18.775  0.00  0.00    -0.014 C 
ATOM     12  C   UNL     1      35.184  -0.460  19.127  0.00  0.00    -0.011 C 
ATOM     13  C   UNL     1      34.680  -0.979  20.504  0.00  0.00    +0.010 C 
ATOM     14  C   UNL     1      33.627  -2.108  20.324  0.00  0.00    +0.030 C 
ATOM     15  C   UNL     1      33.090  -2.661  21.663  0.00  0.00    -0.048 A 
ENDROOT
BRANCH  10  16
ATOM     16  C   UNL     1      36.111  -0.963  16.850  0.00  0.00    +0.109 C 
ATOM     17  N   UNL     1      36.612  -1.650  15.875  0.00  0.00    -0.296 N 
ATOM     18  H   UNL     1      36.837  -2.656  15.917  0.00  0.00    +0.187 HD
ATOM     19  C   UNL     1      36.823  -0.838  14.697  0.00  0.00    +0.156 C 
ATOM     20  C   UNL     1      36.300   0.525  15.250  0.00  0.00    +0.150 C 
ATOM     21  N   UNL     1      35.896   0.264  16.618  0.00  0.00    -0.273 NA
ENDBRANCH  10  16
BRANCH   3  22
ATOM     22  O   UNL     1      32.020  -4.060  25.499  0.00  0.00    -0.339 OA
ATOM     23  H   UNL     1      32.063  -5.003  25.609  0.00  0.00    +0.246 HD
ENDBRANCH   3  22
BRANCH   9  24
ATOM     24  C   UNL     1      33.560  -2.333  17.085  0.00  0.00    +0.183 C 
BRANCH  24  25
ATOM     25  C   UNL     1      33.569  -3.106  15.850  0.00  0.00    +0.089 C 
ATOM     26  N   UNL     1      33.578  -3.720  14.868  0.00  0.00    -0.304 NA
ENDBRANCH  24  25
ENDBRANCH   9  24
TORSDOF 4
ENDMDL
MODEL 9
REMARK minimizedAffinity -4.53786373
REMARK minimizedRMSD -1
REMARK  Name = 301
REMARK  5 active torsions:
REMARK  status: ('A' for Active; 'I' for Inactive)
REMARK    1  A    between atoms: C_3  and  O_4
REMARK    2  A    between atoms: C_5  and  C_17
REMARK    3  A    between atoms: C_15  and  C_20
REMARK    4  A    between atoms: C_15  and  C_23
REMARK    5  A    between atoms: C_16  and  C_17
REMARK                            x       y       z     vdW  Elec       q    Type
REMARK                         _______ _______ _______ _____ _____    ______ ____
ROOT
ATOM      1  C   UNL     1      34.678  -2.055  27.044  0.00  0.00    -0.024 A 
ATOM      2  C   UNL     1      36.063  -1.997  27.207  0.00  0.00    +0.000 A 
ATOM      3  C   UNL     1      36.733  -0.777  27.106  0.00  0.00    +0.074 A 
ATOM      4  C   UNL     1      36.001   0.374  26.799  0.00  0.00    +0.008 A 
ATOM      5  C   UNL     1      34.613   0.314  26.625  0.00  0.00    -0.049 A 
ATOM      6  C   UNL     1      33.897   1.598  26.190  0.00  0.00    +0.058 C 
ATOM      7  C   UNL     1      32.442   1.319  25.743  0.00  0.00    +0.018 C 
ATOM      8  C   UNL     1      31.744   0.460  26.827  0.00  0.00    +0.003 C 
ATOM      9  C   UNL     1      30.181   0.433  26.729  0.00  0.00    +0.012 C 
ATOM     10  C   UNL     1      29.572  -0.385  27.920  0.00  0.00    +0.024 C 
ATOM     11  C   UNL     1      29.724   0.331  29.302  0.00  0.00    -0.014 C 
ATOM     12  C   UNL     1      30.242  -1.794  27.971  0.00  0.00    -0.011 C 
ATOM     13  C   UNL     1      31.795  -1.756  28.029  0.00  0.00    +0.010 C 
ATOM     14  C   UNL     1      32.381  -0.959  26.831  0.00  0.00    +0.030 C 
ATOM     15  C   UNL     1      33.925  -0.891  26.838  0.00  0.00    -0.048 A 
ENDROOT
BRANCH  10  16
ATOM     16  C   UNL     1      28.071  -0.558  27.731  0.00  0.00    +0.109 C 
ATOM     17  N   UNL     1      27.310   0.373  27.253  0.00  0.00    -0.296 N 
ATOM     18  H   UNL     1      27.635   1.307  26.961  0.00  0.00    +0.187 HD
ATOM     19  C   UNL     1      25.930  -0.050  27.168  0.00  0.00    +0.156 C 
ATOM     20  C   UNL     1      26.090  -1.499  27.729  0.00  0.00    +0.150 C 
ATOM     21  N   UNL     1      27.499  -1.647  28.035  0.00  0.00    -0.273 NA
ENDBRANCH  10  16
BRANCH   3  22
ATOM     22  O   UNL     1      38.117  -0.736  27.307  0.00  0.00    -0.339 OA
ATOM     23  H   UNL     1      38.497   0.132  27.237  0.00  0.00    +0.246 HD
ENDBRANCH   3  22
BRANCH   9  24
ATOM     24  C   UNL     1      29.643  -0.048  25.342  0.00  0.00    +0.183 C 
BRANCH  24  25
ATOM     25  C   UNL     1      30.588  -0.910  24.644  0.00  0.00    +0.089 C 
ATOM     26  N   UNL     1      31.339  -1.594  24.087  0.00  0.00    -0.304 NA
ENDBRANCH  24  25
ENDBRANCH   9  24
TORSDOF 4
ENDMDL
MODEL 10
REMARK minimizedAffinity -4.41821003
REMARK minimizedRMSD -1
REMARK  Name = 301
REMARK  5 active torsions:
REMARK  status: ('A' for Active; 'I' for Inactive)
REMARK    1  A    between atoms: C_3  and  O_4
REMARK    2  A    between atoms: C_5  and  C_17
REMARK    3  A    between atoms: C_15  and  C_20
REMARK    4  A    between atoms: C_15  and  C_23
REMARK    5  A    between atoms: C_16  and  C_17
REMARK                            x       y       z     vdW  Elec       q    Type
REMARK                         _______ _______ _______ _____ _____    ______ ____
ROOT
ATOM      1  C   UNL     1      28.340  -0.039  28.307  0.00  0.00    -0.024 A 
ATOM      2  C   UNL     1      26.952  -0.175  28.241  0.00  0.00    +0.000 A 
ATOM      3  C   UNL     1      26.345  -0.649  27.077  0.00  0.00    +0.074 A 
ATOM      4  C   UNL     1      27.146  -0.944  25.969  0.00  0.00    +0.008 A 
ATOM      5  C   UNL     1      28.537  -0.798  26.032  0.00  0.00    -0.049 A 
ATOM      6  C   UNL     1      29.335  -1.044  24.745  0.00  0.00    +0.058 C 
ATOM      7  C   UNL     1      30.797  -0.556  24.876  0.00  0.00    +0.018 C 
ATOM      8  C   UNL     1      31.395  -1.119  26.190  0.00  0.00    +0.003 C 
ATOM      9  C   UNL     1      32.958  -1.059  26.271  0.00  0.00    +0.012 C 
ATOM     10  C   UNL     1      33.463  -1.734  27.593  0.00  0.00    +0.024 C 
ATOM     11  C   UNL     1      33.270  -3.285  27.608  0.00  0.00    -0.014 C 
ATOM     12  C   UNL     1      32.727  -1.092  28.811  0.00  0.00    -0.011 C 
ATOM     13  C   UNL     1      31.176  -1.122  28.702  0.00  0.00    +0.010 C 
ATOM     14  C   UNL     1      30.693  -0.432  27.396  0.00  0.00    +0.030 C 
ATOM     15  C   UNL     1      29.156  -0.431  27.236  0.00  0.00    -0.048 A 
ENDROOT
BRANCH  10  16
ATOM     16  C   UNL     1      34.963  -1.523  27.756  0.00  0.00    +0.109 C 
ATOM     17  N   UNL     1      35.804  -1.675  26.784  0.00  0.00    -0.296 N 
ATOM     18  H   UNL     1      35.550  -1.951  25.824  0.00  0.00    +0.187 HD
ATOM     19  C   UNL     1      37.162  -1.407  27.202  0.00  0.00    +0.156 C 
ATOM     20  C   UNL     1      36.886  -1.049  28.696  0.00  0.00    +0.150 C 
ATOM     21  N   UNL     1      35.453  -1.177  28.872  0.00  0.00    -0.273 NA
ENDBRANCH  10  16
BRANCH   3  22
ATOM     22  O   UNL     1      24.957  -0.809  27.044  0.00  0.00    -0.339 OA
ATOM     23  H   UNL     1      24.621  -1.151  26.222  0.00  0.00    +0.246 HD
ENDBRANCH   3  22
BRANCH   9  24
ATOM     24  C   UNL     1      33.547   0.376  26.074  0.00  0.00    +0.183 C 
BRANCH  24  25
ATOM     25  C   UNL     1      33.069   1.319  27.076  0.00  0.00    +0.089 C 
ATOM     26  N   UNL     1      32.691   2.070  27.873  0.00  0.00    -0.304 NA
ENDBRANCH  24  25
ENDBRANCH   9  24
TORSDOF 4
ENDMDL
MODEL 11
REMARK minimizedAffinity -4.04919434
REMARK minimizedRMSD -1
REMARK  Name = 301
REMARK  5 active torsions:
REMARK  status: ('A' for Active; 'I' for Inactive)
REMARK    1  A    between atoms: C_3  and  O_4
REMARK    2  A    between atoms: C_5  and  C_17
REMARK    3  A    between atoms: C_15  and  C_20
REMARK    4  A    between atoms: C_15  and  C_23
REMARK    5  A    between atoms: C_16  and  C_17
REMARK                            x       y       z     vdW  Elec       q    Type
REMARK                         _______ _______ _______ _____ _____    ______ ____
ROOT
ATOM      1  C   UNL     1      32.904  -4.168  23.765  0.00  0.00    -0.024 A 
ATOM      2  C   UNL     1      32.980  -4.832  22.539  0.00  0.00    +0.000 A 
ATOM      3  C   UNL     1      32.393  -4.279  21.401  0.00  0.00    +0.074 A 
ATOM      4  C   UNL     1      31.694  -3.072  21.518  0.00  0.00    +0.008 A 
ATOM      5  C   UNL     1      31.609  -2.411  22.749  0.00  0.00    -0.049 A 
ATOM      6  C   UNL     1      30.741  -1.149  22.818  0.00  0.00    +0.058 C 
ATOM      7  C   UNL     1      30.491  -0.704  24.279  0.00  0.00    +0.018 C 
ATOM      8  C   UNL     1      31.847  -0.664  25.026  0.00  0.00    +0.003 C 
ATOM      9  C   UNL     1      31.826   0.142  26.369  0.00  0.00    +0.012 C 
ATOM     10  C   UNL     1      33.262   0.198  26.996  0.00  0.00    +0.024 C 
ATOM     11  C   UNL     1      34.256   1.091  26.183  0.00  0.00    -0.014 C 
ATOM     12  C   UNL     1      33.826  -1.252  27.120  0.00  0.00    -0.011 C 
ATOM     13  C   UNL     1      33.807  -2.056  25.789  0.00  0.00    +0.010 C 
ATOM     14  C   UNL     1      32.373  -2.118  25.193  0.00  0.00    +0.030 C 
ATOM     15  C   UNL     1      32.295  -2.909  23.868  0.00  0.00    -0.048 A 
ENDROOT
BRANCH  10  16
ATOM     16  C   UNL     1      33.211   0.829  28.381  0.00  0.00    +0.109 C 
ATOM     17  N   UNL     1      32.134   1.345  28.880  0.00  0.00    -0.296 N 
ATOM     18  H   UNL     1      31.223   1.383  28.399  0.00  0.00    +0.187 HD
ATOM     19  C   UNL     1      32.353   1.867  30.210  0.00  0.00    +0.156 C 
ATOM     20  C   UNL     1      33.866   1.510  30.360  0.00  0.00    +0.150 C 
ATOM     21  N   UNL     1      34.242   0.866  29.117  0.00  0.00    -0.273 NA
ENDBRANCH  10  16
BRANCH   3  22
ATOM     22  O   UNL     1      32.510  -4.944  20.177  0.00  0.00    -0.339 OA
ATOM     23  H   UNL     1      32.097  -4.497  19.446  0.00  0.00    +0.246 HD
ENDBRANCH   3  22
BRANCH   9  24
ATOM     24  C   UNL     1      30.752  -0.358  27.390  0.00  0.00    +0.183 C 
BRANCH  24  25
ATOM     25  C   UNL     1      29.478   0.335  27.246  0.00  0.00    +0.089 C 
ATOM     26  N   UNL     1      28.467   0.888  27.132  0.00  0.00    -0.304 NA
ENDBRANCH  24  25
ENDBRANCH   9  24
TORSDOF 4
ENDMDL
MODEL 12
REMARK minimizedAffinity -3.57042027
REMARK minimizedRMSD -1
REMARK  Name = 301
REMARK  5 active torsions:
REMARK  status: ('A' for Active; 'I' for Inactive)
REMARK    1  A    between atoms: C_3  and  O_4
REMARK    2  A    between atoms: C_5  and  C_17
REMARK    3  A    between atoms: C_15  and  C_20
REMARK    4  A    between atoms: C_15  and  C_23
REMARK    5  A    between atoms: C_16  and  C_17
REMARK                            x       y       z     vdW  Elec       q    Type
REMARK                         _______ _______ _______ _____ _____    ______ ____
ROOT
ATOM      1  C   UNL     1      35.708  -2.464  26.312  0.00  0.00    -0.024 A 
ATOM      2  C   UNL     1      37.098  -2.453  26.450  0.00  0.00    +0.000 A 
ATOM      3  C   UNL     1      37.746  -1.326  26.958  0.00  0.00    +0.074 A 
ATOM      4  C   UNL     1      36.986  -0.199  27.285  0.00  0.00    +0.008 A 
ATOM      5  C   UNL     1      35.593  -0.206  27.137  0.00  0.00    -0.049 A 
ATOM      6  C   UNL     1      34.844   1.101  27.419  0.00  0.00    +0.058 C 
ATOM      7  C   UNL     1      33.378   1.039  26.927  0.00  0.00    +0.018 C 
ATOM      8  C   UNL     1      32.731  -0.268  27.451  0.00  0.00    +0.003 C 
ATOM      9  C   UNL     1      31.167  -0.290  27.389  0.00  0.00    +0.012 C 
ATOM     10  C   UNL     1      30.612  -1.612  28.025  0.00  0.00    +0.024 C 
ATOM     11  C   UNL     1      30.803  -1.678  29.576  0.00  0.00    -0.014 C 
ATOM     12  C   UNL     1      31.304  -2.837  27.348  0.00  0.00    -0.011 C 
ATOM     13  C   UNL     1      32.858  -2.786  27.382  0.00  0.00    +0.010 C 
ATOM     14  C   UNL     1      33.389  -1.479  26.730  0.00  0.00    +0.030 C 
ATOM     15  C   UNL     1      34.931  -1.376  26.734  0.00  0.00    -0.048 A 
ENDROOT
BRANCH  10  16
ATOM     16  C   UNL     1      29.108  -1.713  27.810  0.00  0.00    +0.109 C 
ATOM     17  N   UNL     1      28.306  -0.710  27.967  0.00  0.00    -0.296 N 
ATOM     18  H   UNL     1      28.597   0.237  28.250  0.00  0.00    +0.187 HD
ATOM     19  C   UNL     1      26.933  -1.071  27.691  0.00  0.00    +0.156 C 
ATOM     20  C   UNL     1      27.150  -2.573  27.323  0.00  0.00    +0.150 C 
ATOM     21  N   UNL     1      28.575  -2.807  27.454  0.00  0.00    -0.273 NA
ENDBRANCH  10  16
BRANCH   3  22
ATOM     22  O   UNL     1      39.134  -1.349  27.120  0.00  0.00    -0.339 OA
ATOM     23  H   UNL     1      39.499  -0.551  27.485  0.00  0.00    +0.246 HD
ENDBRANCH   3  22
BRANCH   9  24
ATOM     24  C   UNL     1      30.587  -0.030  25.960  0.00  0.00    +0.183 C 
BRANCH  24  25
ATOM     25  C   UNL     1      31.113  -0.956  24.966  0.00  0.00    +0.089 C 
ATOM     26  N   UNL     1      31.533  -1.692  24.176  0.00  0.00    -0.304 NA
ENDBRANCH  24  25
ENDBRANCH   9  24
TORSDOF 4
ENDMDL
MODEL 13
REMARK minimizedAffinity -2.62967157
REMARK minimizedRMSD -1
REMARK  Name = 301
REMARK  5 active torsions:
REMARK  status: ('A' for Active; 'I' for Inactive)
REMARK    1  A    between atoms: C_3  and  O_4
REMARK    2  A    between atoms: C_5  and  C_17
REMARK    3  A    between atoms: C_15  and  C_20
REMARK    4  A    between atoms: C_15  and  C_23
REMARK    5  A    between atoms: C_16  and  C_17
REMARK                            x       y       z     vdW  Elec       q    Type
REMARK                         _______ _______ _______ _____ _____    ______ ____
ROOT
ATOM      1  C   UNL     1      32.890  -4.234  23.802  0.00  0.00    -0.024 A 
ATOM      2  C   UNL     1      33.050  -4.915  22.594  0.00  0.00    +0.000 A 
ATOM      3  C   UNL     1      32.543  -4.377  21.410  0.00  0.00    +0.074 A 
ATOM      4  C   UNL     1      31.838  -3.170  21.462  0.00  0.00    +0.008 A 
ATOM      5  C   UNL     1      31.668  -2.492  22.675  0.00  0.00    -0.049 A 
ATOM      6  C   UNL     1      30.798  -1.230  22.666  0.00  0.00    +0.058 C 
ATOM      7  C   UNL     1      30.447  -0.765  24.100  0.00  0.00    +0.018 C 
ATOM      8  C   UNL     1      31.749  -0.714  24.939  0.00  0.00    +0.003 C 
ATOM      9  C   UNL     1      31.635   0.110  26.266  0.00  0.00    +0.012 C 
ATOM     10  C   UNL     1      33.024   0.176  26.990  0.00  0.00    +0.024 C 
ATOM     11  C   UNL     1      34.072   1.059  26.236  0.00  0.00    -0.014 C 
ATOM     12  C   UNL     1      33.577  -1.272  27.173  0.00  0.00    -0.011 C 
ATOM     13  C   UNL     1      33.650  -2.094  25.855  0.00  0.00    +0.010 C 
ATOM     14  C   UNL     1      32.261  -2.165  25.162  0.00  0.00    +0.030 C 
ATOM     15  C   UNL     1      32.275  -2.974  23.846  0.00  0.00    -0.048 A 
ENDROOT
BRANCH  10  16
ATOM     16  C   UNL     1      32.877   0.825  28.360  0.00  0.00    +0.109 C 
ATOM     17  N   UNL     1      33.651   0.545  29.358  0.00  0.00    -0.296 N 
ATOM     18  H   UNL     1      34.427  -0.133  29.329  0.00  0.00    +0.187 HD
ATOM     19  C   UNL     1      33.304   1.305  30.538  0.00  0.00    +0.156 C 
ATOM     20  C   UNL     1      32.106   2.118  29.955  0.00  0.00    +0.150 C 
ATOM     21  N   UNL     1      31.975   1.689  28.577  0.00  0.00    -0.273 NA
ENDBRANCH  10  16
BRANCH   3  22
ATOM     22  O   UNL     1      32.745  -5.059  20.206  0.00  0.00    -0.339 OA
ATOM     23  H   UNL     1      32.383  -4.622  19.443  0.00  0.00    +0.246 HD
ENDBRANCH   3  22
BRANCH   9  24
ATOM     24  C   UNL     1      30.493  -0.377  27.217  0.00  0.00    +0.183 C 
BRANCH  24  25
ATOM     25  C   UNL     1      30.397  -1.830  27.277  0.00  0.00    +0.089 C 
ATOM     26  N   UNL     1      30.321  -2.984  27.326  0.00  0.00    -0.304 NA
ENDBRANCH  24  25
ENDBRANCH   9  24
TORSDOF 4
ENDMDL
MODEL 14
REMARK minimizedAffinity -2.01416922
REMARK minimizedRMSD -1
REMARK  Name = 301
REMARK  5 active torsions:
REMARK  status: ('A' for Active; 'I' for Inactive)
REMARK    1  A    between atoms: C_3  and  O_4
REMARK    2  A    between atoms: C_5  and  C_17
REMARK    3  A    between atoms: C_15  and  C_20
REMARK    4  A    between atoms: C_15  and  C_23
REMARK    5  A    between atoms: C_16  and  C_17
REMARK                            x       y       z     vdW  Elec       q    Type
REMARK                         _______ _______ _______ _____ _____    ______ ____
ROOT
ATOM      1  C   UNL     1      32.540  -4.646  22.825  0.00  0.00    -0.024 A 
ATOM      2  C   UNL     1      32.984  -5.148  21.600  0.00  0.00    +0.000 A 
ATOM      3  C   UNL     1      33.351  -4.277  20.573  0.00  0.00    +0.074 A 
ATOM      4  C   UNL     1      33.227  -2.899  20.778  0.00  0.00    +0.008 A 
ATOM      5  C   UNL     1      32.771  -2.396  22.002  0.00  0.00    -0.049 A 
ATOM      6  C   UNL     1      32.565  -0.880  22.113  0.00  0.00    +0.058 C 
ATOM      7  C   UNL     1      31.780  -0.501  23.392  0.00  0.00    +0.018 C 
ATOM      8  C   UNL     1      32.432  -1.210  24.605  0.00  0.00    +0.003 C 
ATOM      9  C   UNL     1      32.022  -0.624  25.998  0.00  0.00    +0.012 C 
ATOM     10  C   UNL     1      32.804  -1.349  27.148  0.00  0.00    +0.024 C 
ATOM     11  C   UNL     1      34.329  -1.005  27.170  0.00  0.00    -0.014 C 
ATOM     12  C   UNL     1      32.604  -2.891  27.011  0.00  0.00    -0.011 C 
ATOM     13  C   UNL     1      32.978  -3.457  25.612  0.00  0.00    +0.010 C 
ATOM     14  C   UNL     1      32.180  -2.740  24.487  0.00  0.00    +0.030 C 
ATOM     15  C   UNL     1      32.511  -3.266  23.072  0.00  0.00    -0.048 A 
ENDROOT
BRANCH  10  16
ATOM     16  C   UNL     1      32.281  -0.902  28.507  0.00  0.00    +0.109 C 
ATOM     17  N   UNL     1      31.739  -1.716  29.355  0.00  0.00    -0.296 N 
ATOM     18  H   UNL     1      31.607  -2.727  29.199  0.00  0.00    +0.187 HD
ATOM     19  C   UNL     1      31.336  -1.040  30.568  0.00  0.00    +0.156 C 
ATOM     20  C   UNL     1      31.797   0.405  30.200  0.00  0.00    +0.150 C 
ATOM     21  N   UNL     1      32.364   0.310  28.869  0.00  0.00    -0.273 NA
ENDBRANCH  10  16
BRANCH   3  22
ATOM     22  O   UNL     1      33.826  -4.801  19.367  0.00  0.00    -0.339 OA
ATOM     23  H   UNL     1      34.069  -4.145  18.723  0.00  0.00    +0.246 HD
ENDBRANCH   3  22
BRANCH   9  24
ATOM     24  C   UNL     1      30.478  -0.607  26.248  0.00  0.00    +0.183 C 
BRANCH  24  25
ATOM     25  C   UNL     1      29.996   0.699  26.680  0.00  0.00    +0.089 C 
ATOM     26  N   UNL     1      29.614   1.736  27.025  0.00  0.00    -0.304 NA
ENDBRANCH  24  25
ENDBRANCH   9  24
TORSDOF 4
ENDMDL
MODEL 15
REMARK minimizedAffinity -1.792382
REMARK minimizedRMSD -1
REMARK  Name = 301
REMARK  5 active torsions:
REMARK  status: ('A' for Active; 'I' for Inactive)
REMARK    1  A    between atoms: C_3  and  O_4
REMARK    2  A    between atoms: C_5  and  C_17
REMARK    3  A    between atoms: C_15  and  C_20
REMARK    4  A    between atoms: C_15  and  C_23
REMARK    5  A    between atoms: C_16  and  C_17
REMARK                            x       y       z     vdW  Elec       q    Type
REMARK                         _______ _______ _______ _____ _____    ______ ____
ROOT
ATOM      1  C   UNL     1      33.613   0.926  29.832  0.00  0.00    -0.024 A 
ATOM      2  C   UNL     1      34.809   1.564  30.167  0.00  0.00    +0.000 A 
ATOM      3  C   UNL     1      35.465   2.367  29.233  0.00  0.00    +0.074 A 
ATOM      4  C   UNL     1      34.926   2.488  27.948  0.00  0.00    +0.008 A 
ATOM      5  C   UNL     1      33.732   1.840  27.608  0.00  0.00    -0.049 A 
ATOM      6  C   UNL     1      33.261   1.938  26.152  0.00  0.00    +0.058 C 
ATOM      7  C   UNL     1      32.117   0.940  25.852  0.00  0.00    +0.018 C 
ATOM      8  C   UNL     1      31.033   1.078  26.950  0.00  0.00    +0.003 C 
ATOM      9  C   UNL     1      29.649   0.446  26.581  0.00  0.00    +0.012 C 
ATOM     10  C   UNL     1      28.602   0.720  27.716  0.00  0.00    +0.024 C 
ATOM     11  C   UNL     1      28.175   2.221  27.812  0.00  0.00    -0.014 C 
ATOM     12  C   UNL     1      29.189   0.242  29.081  0.00  0.00    -0.011 C 
ATOM     13  C   UNL     1      30.581   0.847  29.420  0.00  0.00    +0.010 C 
ATOM     14  C   UNL     1      31.609   0.548  28.294  0.00  0.00    +0.030 C 
ATOM     15  C   UNL     1      33.014   1.125  28.580  0.00  0.00    -0.048 A 
ENDROOT
BRANCH  10  16
ATOM     16  C   UNL     1      27.311  -0.039  27.440  0.00  0.00    +0.109 C 
ATOM     17  N   UNL     1      26.408   0.384  26.616  0.00  0.00    -0.296 N 
ATOM     18  H   UNL     1      26.469   1.261  26.076  0.00  0.00    +0.187 HD
ATOM     19  C   UNL     1      25.288  -0.526  26.531  0.00  0.00    +0.156 C 
ATOM     20  C   UNL     1      25.785  -1.611  27.537  0.00  0.00    +0.150 C 
ATOM     21  N   UNL     1      27.070  -1.142  28.016  0.00  0.00    -0.273 NA
ENDBRANCH  10  16
BRANCH   3  22
ATOM     22  O   UNL     1      36.643   3.024  29.600  0.00  0.00    -0.339 OA
ATOM     23  H   UNL     1      37.021   3.563  28.915  0.00  0.00    +0.246 HD
ENDBRANCH   3  22
BRANCH   9  24
ATOM     24  C   UNL     1      29.727  -1.068  26.198  0.00  0.00    +0.183 C 
BRANCH  24  25
ATOM     25  C   UNL     1      30.440  -1.293  24.947  0.00  0.00    +0.089 C 
ATOM     26  N   UNL     1      31.008  -1.472  23.954  0.00  0.00    -0.304 NA
ENDBRANCH  24  25
ENDBRANCH   9  24
TORSDOF 4
ENDMDL
MODEL 16
REMARK minimizedAffinity -0.94325763
REMARK minimizedRMSD -1
REMARK  Name = 301
REMARK  5 active torsions:
REMARK  status: ('A' for Active; 'I' for Inactive)
REMARK    1  A    between atoms: C_3  and  O_4
REMARK    2  A    between atoms: C_5  and  C_17
REMARK    3  A    between atoms: C_15  and  C_20
REMARK    4  A    between atoms: C_15  and  C_23
REMARK    5  A    between atoms: C_16  and  C_17
REMARK                            x       y       z     vdW  Elec       q    Type
REMARK                         _______ _______ _______ _____ _____    ______ ____
ROOT
ATOM      1  C   UNL     1      31.978  -3.176  17.621  0.00  0.00    -0.024 A 
ATOM      2  C   UNL     1      32.417  -3.477  16.330  0.00  0.00    +0.000 A 
ATOM      3  C   UNL     1      33.770  -3.375  16.005  0.00  0.00    +0.074 A 
ATOM      4  C   UNL     1      34.669  -2.929  16.979  0.00  0.00    +0.008 A 
ATOM      5  C   UNL     1      34.227  -2.617  18.271  0.00  0.00    -0.049 A 
ATOM      6  C   UNL     1      35.255  -2.038  19.251  0.00  0.00    +0.058 C 
ATOM      7  C   UNL     1      34.578  -1.461  20.517  0.00  0.00    +0.018 C 
ATOM      8  C   UNL     1      33.591  -2.516  21.078  0.00  0.00    +0.003 C 
ATOM      9  C   UNL     1      33.136  -2.260  22.554  0.00  0.00    +0.012 C 
ATOM     10  C   UNL     1      32.215  -3.427  23.054  0.00  0.00    +0.024 C 
ATOM     11  C   UNL     1      32.983  -4.774  23.258  0.00  0.00    -0.014 C 
ATOM     12  C   UNL     1      31.045  -3.627  22.041  0.00  0.00    -0.011 C 
ATOM     13  C   UNL     1      31.507  -3.842  20.572  0.00  0.00    +0.010 C 
ATOM     14  C   UNL     1      32.400  -2.666  20.088  0.00  0.00    +0.030 C 
ATOM     15  C   UNL     1      32.887  -2.827  18.631  0.00  0.00    -0.048 A 
ENDROOT
BRANCH  10  16
ATOM     16  C   UNL     1      31.634  -3.095  24.422  0.00  0.00    +0.109 C 
ATOM     17  N   UNL     1      30.629  -2.297  24.584  0.00  0.00    -0.296 N 
ATOM     18  H   UNL     1      30.133  -1.813  23.821  0.00  0.00    +0.187 HD
ATOM     19  C   UNL     1      30.271  -2.159  25.978  0.00  0.00    +0.156 C 
ATOM     20  C   UNL     1      31.347  -3.106  26.596  0.00  0.00    +0.150 C 
ATOM     21  N   UNL     1      32.120  -3.605  25.476  0.00  0.00    -0.273 NA
ENDBRANCH  10  16
BRANCH   3  22
ATOM     22  O   UNL     1      34.192  -3.714  14.716  0.00  0.00    -0.339 OA
ATOM     23  H   UNL     1      35.129  -3.633  14.576  0.00  0.00    +0.246 HD
ENDBRANCH   3  22
BRANCH   9  24
ATOM     24  C   UNL     1      32.488  -0.854  22.782  0.00  0.00    +0.183 C 
BRANCH  24  25
ATOM     25  C   UNL     1      32.718  -0.344  24.128  0.00  0.00    +0.089 C 
ATOM     26  N   UNL     1      32.901   0.062  25.196  0.00  0.00    -0.304 NA
ENDBRANCH  24  25
ENDBRANCH   9  24
TORSDOF 4
ENDMDL
MODEL 17
REMARK minimizedAffinity 1.09876561
REMARK minimizedRMSD -1
REMARK  Name = 301
REMARK  5 active torsions:
REMARK  status: ('A' for Active; 'I' for Inactive)
REMARK    1  A    between atoms: C_3  and  O_4
REMARK    2  A    between atoms: C_5  and  C_17
REMARK    3  A    between atoms: C_15  and  C_20
REMARK    4  A    between atoms: C_15  and  C_23
REMARK    5  A    between atoms: C_16  and  C_17
REMARK                            x       y       z     vdW  Elec       q    Type
REMARK                         _______ _______ _______ _____ _____    ______ ____
ROOT
ATOM      1  C   UNL     1      30.863  -0.963  25.813  0.00  0.00    -0.024 A 
ATOM      2  C   UNL     1      30.888  -0.580  27.155  0.00  0.00    +0.000 A 
ATOM      3  C   UNL     1      31.622  -1.318  28.085  0.00  0.00    +0.074 A 
ATOM      4  C   UNL     1      32.294  -2.468  27.657  0.00  0.00    +0.008 A 
ATOM      5  C   UNL     1      32.259  -2.859  26.313  0.00  0.00    -0.049 A 
ATOM      6  C   UNL     1      32.935  -4.185  25.943  0.00  0.00    +0.058 C 
ATOM      7  C   UNL     1      32.561  -4.638  24.511  0.00  0.00    +0.018 C 
ATOM      8  C   UNL     1      32.772  -3.448  23.541  0.00  0.00    +0.003 C 
ATOM      9  C   UNL     1      32.831  -3.846  22.027  0.00  0.00    +0.012 C 
ATOM     10  C   UNL     1      33.138  -2.588  21.142  0.00  0.00    +0.024 C 
ATOM     11  C   UNL     1      34.596  -2.051  21.317  0.00  0.00    -0.014 C 
ATOM     12  C   UNL     1      32.109  -1.462  21.477  0.00  0.00    -0.011 C 
ATOM     13  C   UNL     1      32.032  -1.102  22.987  0.00  0.00    +0.010 C 
ATOM     14  C   UNL     1      31.708  -2.356  23.846  0.00  0.00    +0.030 C 
ATOM     15  C   UNL     1      31.617  -2.055  25.358  0.00  0.00    -0.048 A 
ENDROOT
BRANCH  10  16
ATOM     16  C   UNL     1      33.023  -2.939  19.665  0.00  0.00    +0.109 C 
ATOM     17  N   UNL     1      32.106  -2.449  18.894  0.00  0.00    -0.296 N 
ATOM     18  H   UNL     1      31.376  -1.787  19.196  0.00  0.00    +0.187 HD
ATOM     19  C   UNL     1      32.226  -2.936  17.539  0.00  0.00    +0.156 C 
ATOM     20  C   UNL     1      33.476  -3.853  17.724  0.00  0.00    +0.150 C 
ATOM     21  N   UNL     1      33.843  -3.738  19.121  0.00  0.00    -0.273 NA
ENDBRANCH  10  16
BRANCH   3  22
ATOM     22  O   UNL     1      31.662  -0.897  29.417  0.00  0.00    -0.339 OA
ATOM     23  H   UNL     1      32.194  -1.443  29.985  0.00  0.00    +0.246 HD
ENDBRANCH   3  22
BRANCH   9  24
ATOM     24  C   UNL     1      31.572  -4.629  21.530  0.00  0.00    +0.183 C 
BRANCH  24  25
ATOM     25  C   UNL     1      30.538  -3.747  21.002  0.00  0.00    +0.089 C 
ATOM     26  N   UNL     1      29.716  -3.046  20.585  0.00  0.00    -0.304 NA
ENDBRANCH  24  25
ENDBRANCH   9  24
TORSDOF 4
ENDMDL
MODEL 18
REMARK minimizedAffinity 3.38808179
REMARK minimizedRMSD -1
REMARK  Name = 301
REMARK  5 active torsions:
REMARK  status: ('A' for Active; 'I' for Inactive)
REMARK    1  A    between atoms: C_3  and  O_4
REMARK    2  A    between atoms: C_5  and  C_17
REMARK    3  A    between atoms: C_15  and  C_20
REMARK    4  A    between atoms: C_15  and  C_23
REMARK    5  A    between atoms: C_16  and  C_17
REMARK                            x       y       z     vdW  Elec       q    Type
REMARK                         _______ _______ _______ _____ _____    ______ ____
ROOT
ATOM      1  C   UNL     1      31.230   1.107  26.508  0.00  0.00    -0.024 A 
ATOM      2  C   UNL     1      30.999   1.546  27.813  0.00  0.00    +0.000 A 
ATOM      3  C   UNL     1      30.399   0.699  28.745  0.00  0.00    +0.074 A 
ATOM      4  C   UNL     1      29.998  -0.578  28.339  0.00  0.00    +0.008 A 
ATOM      5  C   UNL     1      30.220  -1.015  27.028  0.00  0.00    -0.049 A 
ATOM      6  C   UNL     1      29.659  -2.387  26.633  0.00  0.00    +0.058 C 
ATOM      7  C   UNL     1      29.706  -2.606  25.102  0.00  0.00    +0.018 C 
ATOM      8  C   UNL     1      31.126  -2.255  24.591  0.00  0.00    +0.003 C 
ATOM      9  C   UNL     1      31.456  -2.800  23.161  0.00  0.00    +0.012 C 
ATOM     10  C   UNL     1      32.941  -2.470  22.778  0.00  0.00    +0.024 C 
ATOM     11  C   UNL     1      33.987  -3.287  23.605  0.00  0.00    -0.014 C 
ATOM     12  C   UNL     1      33.191  -0.940  22.962  0.00  0.00    -0.011 C 
ATOM     13  C   UNL     1      32.824  -0.403  24.374  0.00  0.00    +0.010 C 
ATOM     14  C   UNL     1      31.344  -0.721  24.727  0.00  0.00    +0.030 C 
ATOM     15  C   UNL     1      30.924  -0.207  26.122  0.00  0.00    -0.048 A 
ENDROOT
BRANCH  10  16
ATOM     16  C   UNL     1      33.209  -2.844  21.327  0.00  0.00    +0.109 C 
ATOM     17  N   UNL     1      33.663  -2.001  20.456  0.00  0.00    -0.296 N 
ATOM     18  H   UNL     1      33.881  -1.013  20.651  0.00  0.00    +0.187 HD
ATOM     19  C   UNL     1      33.837  -2.612  19.157  0.00  0.00    +0.156 C 
ATOM     20  C   UNL     1      33.360  -4.057  19.506  0.00  0.00    +0.150 C 
ATOM     21  N   UNL     1      33.000  -4.022  20.909  0.00  0.00    -0.273 NA
ENDBRANCH  10  16
BRANCH   3  22
ATOM     22  O   UNL     1      30.208   1.147  30.056  0.00  0.00    -0.339 OA
ATOM     23  H   UNL     1      29.808   0.507  30.634  0.00  0.00    +0.246 HD
ENDBRANCH   3  22
BRANCH   9  24
ATOM     24  C   UNL     1      30.444  -2.341  22.060  0.00  0.00    +0.183 C 
BRANCH  24  25
ATOM     25  C   UNL     1      30.079  -3.420  21.151  0.00  0.00    +0.089 C 
ATOM     26  N   UNL     1      29.792  -4.277  20.428  0.00  0.00    -0.304 NA
ENDBRANCH  24  25
ENDBRANCH   9  24
TORSDOF 4
ENDMDL
