MODEL 1
REMARK minimizedAffinity -8.37600136
REMARK minimizedRMSD -1
REMARK  Name = scaffold
REMARK  6 active torsions:
REMARK  status: ('A' for Active; 'I' for Inactive)
REMARK    1  A    between atoms: C_3  and  O_4
REMARK    2  A    between atoms: C_5  and  C_17
REMARK    3  A    between atoms: C_15  and  C_20
REMARK    4  A    between atoms: C_15  and  C_23
REMARK    5  A    between atoms: C_16  and  C_17
REMARK    6  A    between atoms: C_23  and  O_25
REMARK                            x       y       z     vdW  Elec       q    Type
REMARK                         _______ _______ _______ _____ _____    ______ ____
ROOT
ATOM      1  C   UNL     1      27.525  -1.856  28.033  0.00  0.00    -0.024 A 
ATOM      2  C   UNL     1      26.158  -1.687  27.802  0.00  0.00    +0.000 A 
ATOM      3  C   UNL     1      25.680  -0.501  27.243  0.00  0.00    +0.074 A 
ATOM      4  C   UNL     1      26.584   0.530  26.966  0.00  0.00    +0.008 A 
ATOM      5  C   UNL     1      27.953   0.360  27.205  0.00  0.00    -0.049 A 
ATOM      6  C   UNL     1      28.874   1.562  26.983  0.00  0.00    +0.058 C 
ATOM      7  C   UNL     1      30.293   1.332  27.561  0.00  0.00    +0.018 C 
ATOM      8  C   UNL     1      30.829  -0.039  27.065  0.00  0.00    +0.000 C 
ATOM      9  C   UNL     1      32.352  -0.285  27.347  0.00  0.00    -0.004 C 
ATOM     10  C   UNL     1      32.818  -1.697  26.838  0.00  0.00    +0.006 C 
ATOM     11  C   UNL     1      32.901  -1.777  25.280  0.00  0.00    -0.039 C 
ATOM     12  C   UNL     1      31.861  -2.802  27.377  0.00  0.00    -0.032 C 
ATOM     13  C   UNL     1      30.366  -2.518  27.084  0.00  0.00    +0.006 C 
ATOM     14  C   UNL     1      29.963  -1.158  27.718  0.00  0.00    +0.030 C 
ATOM     15  C   UNL     1      28.448  -0.876  27.642  0.00  0.00    -0.048 A 
ENDROOT
BRANCH   3  16
ATOM     16  O   UNL     1      24.313  -0.369  26.982  0.00  0.00    -0.339 OA
ATOM     17  H   UNL     1      24.072   0.449  26.561  0.00  0.00    +0.246 HD
ENDBRANCH   3  16
BRANCH   9  18
ATOM     18  C   UNL     1      32.516  -0.259  28.901  0.00  0.00    +0.179 C 
BRANCH  18  19
ATOM     19  C   UNL     1      33.357   0.823  29.400  0.00  0.00    +0.089 C 
ATOM     20  N   UNL     1      34.031   1.676  29.800  0.00  0.00    -0.304 NA
ENDBRANCH  18  19
ENDBRANCH   9  18
BRANCH  10  21
ATOM     21  C   UNL     1      34.166  -2.022  27.465  0.00  0.00    +0.114 C 
BRANCH  21  22
ATOM     22  O   UNL     1      35.327  -1.492  27.175  0.00  0.00    -0.246 OA
ATOM     23  H   UNL     1      35.999  -1.883  27.721  0.00  0.00    +0.000 HD
ENDBRANCH  21  22
ENDBRANCH  10  21
TORSDOF 5
ENDMDL
MODEL 2
REMARK minimizedAffinity -8.35620308
REMARK minimizedRMSD -1
REMARK  Name = scaffold
REMARK  6 active torsions:
REMARK  status: ('A' for Active; 'I' for Inactive)
REMARK    1  A    between atoms: C_3  and  O_4
REMARK    2  A    between atoms: C_5  and  C_17
REMARK    3  A    between atoms: C_15  and  C_20
REMARK    4  A    between atoms: C_15  and  C_23
REMARK    5  A    between atoms: C_16  and  C_17
REMARK    6  A    between atoms: C_23  and  O_25
REMARK                            x       y       z     vdW  Elec       q    Type
REMARK                         _______ _______ _______ _____ _____    ______ ____
ROOT
ATOM      1  C   UNL     1      28.133   0.308  26.429  0.00  0.00    -0.024 A 
ATOM      2  C   UNL     1      26.754   0.216  26.640  0.00  0.00    +0.000 A 
ATOM      3  C   UNL     1      26.227  -0.836  27.391  0.00  0.00    +0.074 A 
ATOM      4  C   UNL     1      27.093  -1.817  27.884  0.00  0.00    +0.008 A 
ATOM      5  C   UNL     1      28.473  -1.725  27.665  0.00  0.00    -0.049 A 
ATOM      6  C   UNL     1      29.352  -2.885  28.136  0.00  0.00    +0.058 C 
ATOM      7  C   UNL     1      30.795  -2.797  27.574  0.00  0.00    +0.018 C 
ATOM      8  C   UNL     1      31.354  -1.371  27.827  0.00  0.00    +0.000 C 
ATOM      9  C   UNL     1      32.890  -1.216  27.557  0.00  0.00    -0.004 C 
ATOM     10  C   UNL     1      33.381   0.256  27.812  0.00  0.00    +0.006 C 
ATOM     11  C   UNL     1      33.421   0.620  29.331  0.00  0.00    -0.039 C 
ATOM     12  C   UNL     1      32.472   1.263  27.046  0.00  0.00    -0.032 C 
ATOM     13  C   UNL     1      30.961   1.071  27.336  0.00  0.00    +0.006 C 
ATOM     14  C   UNL     1      30.540  -0.373  26.950  0.00  0.00    +0.030 C 
ATOM     15  C   UNL     1      29.015  -0.602  27.024  0.00  0.00    -0.048 A 
ENDROOT
BRANCH   3  16
ATOM     16  O   UNL     1      24.850  -0.886  27.625  0.00  0.00    -0.339 OA
ATOM     17  H   UNL     1      24.574  -1.607  28.181  0.00  0.00    +0.246 HD
ENDBRANCH   3  16
BRANCH   9  18
ATOM     18  C   UNL     1      33.100  -1.532  26.041  0.00  0.00    +0.179 C 
BRANCH  18  19
ATOM     19  C   UNL     1      33.257  -2.950  25.737  0.00  0.00    +0.089 C 
ATOM     20  N   UNL     1      33.377  -4.078  25.504  0.00  0.00    -0.304 NA
ENDBRANCH  18  19
ENDBRANCH   9  18
BRANCH  10  21
ATOM     21  C   UNL     1      34.756   0.429  27.183  0.00  0.00    +0.114 C 
BRANCH  21  22
ATOM     22  O   UNL     1      35.435   1.540  27.047  0.00  0.00    -0.246 OA
ATOM     23  H   UNL     1      36.262   1.356  26.619  0.00  0.00    +0.000 HD
ENDBRANCH  21  22
ENDBRANCH  10  21
TORSDOF 5
ENDMDL
MODEL 3
REMARK minimizedAffinity -8.02193737
REMARK minimizedRMSD -1
REMARK  Name = scaffold
REMARK  6 active torsions:
REMARK  status: ('A' for Active; 'I' for Inactive)
REMARK    1  A    between atoms: C_3  and  O_4
REMARK    2  A    between atoms: C_5  and  C_17
REMARK    3  A    between atoms: C_15  and  C_20
REMARK    4  A    between atoms: C_15  and  C_23
REMARK    5  A    between atoms: C_16  and  C_17
REMARK    6  A    between atoms: C_23  and  O_25
REMARK                            x       y       z     vdW  Elec       q    Type
REMARK                         _______ _______ _______ _____ _____    ______ ____
ROOT
ATOM      1  C   UNL     1      28.674  -1.384  27.000  0.00  0.00    -0.024 A 
ATOM      2  C   UNL     1      27.296  -1.483  26.793  0.00  0.00    +0.000 A 
ATOM      3  C   UNL     1      26.483  -0.356  26.920  0.00  0.00    +0.074 A 
ATOM      4  C   UNL     1      27.063   0.858  27.303  0.00  0.00    +0.008 A 
ATOM      5  C   UNL     1      28.444   0.952  27.516  0.00  0.00    -0.049 A 
ATOM      6  C   UNL     1      29.000   2.279  28.039  0.00  0.00    +0.058 C 
ATOM      7  C   UNL     1      30.472   2.156  28.509  0.00  0.00    +0.018 C 
ATOM      8  C   UNL     1      31.304   1.457  27.399  0.00  0.00    +0.000 C 
ATOM      9  C   UNL     1      32.856   1.507  27.620  0.00  0.00    -0.004 C 
ATOM     10  C   UNL     1      33.632   0.763  26.473  0.00  0.00    +0.006 C 
ATOM     11  C   UNL     1      33.609   1.551  25.124  0.00  0.00    -0.039 C 
ATOM     12  C   UNL     1      33.041  -0.664  26.266  0.00  0.00    -0.032 C 
ATOM     13  C   UNL     1      31.505  -0.669  26.059  0.00  0.00    +0.006 C 
ATOM     14  C   UNL     1      30.814  -0.018  27.289  0.00  0.00    +0.030 C 
ATOM     15  C   UNL     1      29.277  -0.147  27.262  0.00  0.00    -0.048 A 
ENDROOT
BRANCH   3  16
ATOM     16  O   UNL     1      25.113  -0.468  26.667  0.00  0.00    -0.339 OA
ATOM     17  H   UNL     1      24.635   0.352  26.731  0.00  0.00    +0.246 HD
ENDBRANCH   3  16
BRANCH   9  18
ATOM     18  C   UNL     1      33.131   0.744  28.955  0.00  0.00    +0.179 C 
BRANCH  18  19
ATOM     19  C   UNL     1      34.294   1.222  29.695  0.00  0.00    +0.089 C 
ATOM     20  N   UNL     1      35.222   1.602  30.275  0.00  0.00    -0.304 NA
ENDBRANCH  18  19
ENDBRANCH   9  18
BRANCH  10  21
ATOM     21  C   UNL     1      35.063   0.520  26.928  0.00  0.00    +0.114 C 
BRANCH  21  22
ATOM     22  O   UNL     1      36.093   1.315  26.776  0.00  0.00    -0.246 OA
ATOM     23  H   UNL     1      36.864   0.910  27.156  0.00  0.00    +0.000 HD
ENDBRANCH  21  22
ENDBRANCH  10  21
TORSDOF 5
ENDMDL
MODEL 4
REMARK minimizedAffinity -7.1482029
REMARK minimizedRMSD -1
REMARK  Name = scaffold
REMARK  6 active torsions:
REMARK  status: ('A' for Active; 'I' for Inactive)
REMARK    1  A    between atoms: C_3  and  O_4
REMARK    2  A    between atoms: C_5  and  C_17
REMARK    3  A    between atoms: C_15  and  C_20
REMARK    4  A    between atoms: C_15  and  C_23
REMARK    5  A    between atoms: C_16  and  C_17
REMARK    6  A    between atoms: C_23  and  O_25
REMARK                            x       y       z     vdW  Elec       q    Type
REMARK                         _______ _______ _______ _____ _____    ______ ____
ROOT
ATOM      1  C   UNL     1      33.935  -0.527  29.020  0.00  0.00    -0.024 A 
ATOM      2  C   UNL     1      35.330  -0.569  28.947  0.00  0.00    +0.000 A 
ATOM      3  C   UNL     1      35.959  -1.112  27.826  0.00  0.00    +0.074 A 
ATOM      4  C   UNL     1      35.174  -1.655  26.804  0.00  0.00    +0.008 A 
ATOM      5  C   UNL     1      33.776  -1.617  26.883  0.00  0.00    -0.049 A 
ATOM      6  C   UNL     1      32.977  -2.324  25.787  0.00  0.00    +0.058 C 
ATOM      7  C   UNL     1      31.475  -2.462  26.148  0.00  0.00    +0.018 C 
ATOM      8  C   UNL     1      30.933  -1.080  26.606  0.00  0.00    +0.000 C 
ATOM      9  C   UNL     1      29.373  -1.006  26.743  0.00  0.00    -0.004 C 
ATOM     10  C   UNL     1      28.897   0.411  27.230  0.00  0.00    +0.006 C 
ATOM     11  C   UNL     1      29.039   1.505  26.124  0.00  0.00    -0.039 C 
ATOM     12  C   UNL     1      29.692   0.833  28.502  0.00  0.00    -0.032 C 
ATOM     13  C   UNL     1      31.229   0.739  28.326  0.00  0.00    +0.006 C 
ATOM     14  C   UNL     1      31.620  -0.718  27.957  0.00  0.00    +0.030 C 
ATOM     15  C   UNL     1      33.145  -0.955  27.946  0.00  0.00    -0.048 A 
ENDROOT
BRANCH   3  16
ATOM     16  O   UNL     1      37.356  -1.107  27.755  0.00  0.00    -0.339 OA
ATOM     17  H   UNL     1      37.708  -1.453  26.942  0.00  0.00    +0.246 HD
ENDBRANCH   3  16
BRANCH   9  18
ATOM     18  C   UNL     1      28.983  -2.045  27.844  0.00  0.00    +0.179 C 
BRANCH  18  19
ATOM     19  C   UNL     1      28.273  -3.217  27.344  0.00  0.00    +0.089 C 
ATOM     20  N   UNL     1      27.704  -4.142  26.941  0.00  0.00    -0.304 NA
ENDBRANCH  18  19
ENDBRANCH   9  18
BRANCH  10  21
ATOM     21  C   UNL     1      27.454   0.308  27.700  0.00  0.00    +0.114 C 
BRANCH  21  22
ATOM     22  O   UNL     1      26.373   0.325  26.962  0.00  0.00    -0.246 OA
ATOM     23  H   UNL     1      25.608   0.244  27.519  0.00  0.00    +0.000 HD
ENDBRANCH  21  22
ENDBRANCH  10  21
TORSDOF 5
ENDMDL
MODEL 5
REMARK minimizedAffinity -6.91022539
REMARK minimizedRMSD -1
REMARK  Name = scaffold
REMARK  6 active torsions:
REMARK  status: ('A' for Active; 'I' for Inactive)
REMARK    1  A    between atoms: C_3  and  O_4
REMARK    2  A    between atoms: C_5  and  C_17
REMARK    3  A    between atoms: C_15  and  C_20
REMARK    4  A    between atoms: C_15  and  C_23
REMARK    5  A    between atoms: C_16  and  C_17
REMARK    6  A    between atoms: C_23  and  O_25
REMARK                            x       y       z     vdW  Elec       q    Type
REMARK                         _______ _______ _______ _____ _____    ______ ____
ROOT
ATOM      1  C   UNL     1      31.768  -1.622  23.205  0.00  0.00    -0.024 A 
ATOM      2  C   UNL     1      32.081  -2.611  22.268  0.00  0.00    +0.000 A 
ATOM      3  C   UNL     1      32.578  -3.845  22.689  0.00  0.00    +0.074 A 
ATOM      4  C   UNL     1      32.802  -4.056  24.053  0.00  0.00    +0.008 A 
ATOM      5  C   UNL     1      32.494  -3.060  24.988  0.00  0.00    -0.049 A 
ATOM      6  C   UNL     1      32.865  -3.312  26.452  0.00  0.00    +0.058 C 
ATOM      7  C   UNL     1      32.746  -2.031  27.318  0.00  0.00    +0.018 C 
ATOM      8  C   UNL     1      31.362  -1.374  27.067  0.00  0.00    +0.000 C 
ATOM      9  C   UNL     1      30.994  -0.227  28.071  0.00  0.00    -0.004 C 
ATOM     10  C   UNL     1      29.592   0.406  27.745  0.00  0.00    +0.006 C 
ATOM     11  C   UNL     1      28.406  -0.545  28.106  0.00  0.00    -0.039 C 
ATOM     12  C   UNL     1      29.521   0.799  26.239  0.00  0.00    -0.032 C 
ATOM     13  C   UNL     1      29.898  -0.360  25.282  0.00  0.00    +0.006 C 
ATOM     14  C   UNL     1      31.338  -0.847  25.601  0.00  0.00    +0.030 C 
ATOM     15  C   UNL     1      31.874  -1.872  24.579  0.00  0.00    -0.048 A 
ENDROOT
BRANCH   3  16
ATOM     16  O   UNL     1      32.845  -4.836  21.739  0.00  0.00    -0.339 OA
ATOM     17  H   UNL     1      33.138  -5.662  22.107  0.00  0.00    +0.246 HD
ENDBRANCH   3  16
BRANCH   9  18
ATOM     18  C   UNL     1      32.076   0.884  27.877  0.00  0.00    +0.179 C 
BRANCH  18  19
ATOM     19  C   UNL     1      32.838   1.201  29.081  0.00  0.00    +0.089 C 
ATOM     20  N   UNL     1      33.446   1.460  30.031  0.00  0.00    -0.304 NA
ENDBRANCH  18  19
ENDBRANCH   9  18
BRANCH  10  21
ATOM     21  C   UNL     1      29.466   1.726  28.490  0.00  0.00    +0.114 C 
BRANCH  21  22
ATOM     22  O   UNL     1      28.448   2.549  28.486  0.00  0.00    -0.246 OA
ATOM     23  H   UNL     1      28.642   3.296  29.039  0.00  0.00    +0.000 HD
ENDBRANCH  21  22
ENDBRANCH  10  21
TORSDOF 5
ENDMDL
MODEL 6
REMARK minimizedAffinity -6.8780098
REMARK minimizedRMSD -1
REMARK  Name = scaffold
REMARK  6 active torsions:
REMARK  status: ('A' for Active; 'I' for Inactive)
REMARK    1  A    between atoms: C_3  and  O_4
REMARK    2  A    between atoms: C_5  and  C_17
REMARK    3  A    between atoms: C_15  and  C_20
REMARK    4  A    between atoms: C_15  and  C_23
REMARK    5  A    between atoms: C_16  and  C_17
REMARK    6  A    between atoms: C_23  and  O_25
REMARK                            x       y       z     vdW  Elec       q    Type
REMARK                         _______ _______ _______ _____ _____    ______ ____
ROOT
ATOM      1  C   UNL     1      32.171  -1.573  23.271  0.00  0.00    -0.024 A 
ATOM      2  C   UNL     1      32.062  -2.510  22.239  0.00  0.00    +0.000 A 
ATOM      3  C   UNL     1      32.263  -3.866  22.497  0.00  0.00    +0.074 A 
ATOM      4  C   UNL     1      32.621  -4.265  23.789  0.00  0.00    +0.008 A 
ATOM      5  C   UNL     1      32.736  -3.323  24.819  0.00  0.00    -0.049 A 
ATOM      6  C   UNL     1      33.237  -3.808  26.181  0.00  0.00    +0.058 C 
ATOM      7  C   UNL     1      33.599  -2.635  27.128  0.00  0.00    +0.018 C 
ATOM      8  C   UNL     1      32.422  -1.621  27.155  0.00  0.00    +0.000 C 
ATOM      9  C   UNL     1      32.531  -0.526  28.271  0.00  0.00    -0.004 C 
ATOM     10  C   UNL     1      31.320   0.476  28.225  0.00  0.00    +0.006 C 
ATOM     11  C   UNL     1      29.988  -0.169  28.725  0.00  0.00    -0.039 C 
ATOM     12  C   UNL     1      31.136   1.025  26.778  0.00  0.00    -0.032 C 
ATOM     13  C   UNL     1      31.040  -0.090  25.705  0.00  0.00    +0.006 C 
ATOM     14  C   UNL     1      32.325  -0.961  25.747  0.00  0.00    +0.030 C 
ATOM     15  C   UNL     1      32.407  -1.980  24.591  0.00  0.00    -0.048 A 
ENDROOT
BRANCH   3  16
ATOM     16  O   UNL     1      32.109  -4.791  21.460  0.00  0.00    -0.339 OA
ATOM     17  H   UNL     1      32.218  -5.698  21.724  0.00  0.00    +0.246 HD
ENDBRANCH   3  16
BRANCH   9  18
ATOM     18  C   UNL     1      33.832   0.283  27.962  0.00  0.00    +0.179 C 
BRANCH  18  19
ATOM     19  C   UNL     1      34.911   0.080  28.922  0.00  0.00    +0.089 C 
ATOM     20  N   UNL     1      35.762  -0.085  29.691  0.00  0.00    -0.304 NA
ENDBRANCH  18  19
ENDBRANCH   9  18
BRANCH  10  21
ATOM     21  C   UNL     1      31.668   1.702  29.056  0.00  0.00    +0.114 C 
BRANCH  21  22
ATOM     22  O   UNL     1      31.743   1.784  30.360  0.00  0.00    -0.246 OA
ATOM     23  H   UNL     1      31.980   2.670  30.609  0.00  0.00    +0.000 HD
ENDBRANCH  21  22
ENDBRANCH  10  21
TORSDOF 5
ENDMDL
MODEL 7
REMARK minimizedAffinity -6.567801
REMARK minimizedRMSD -1
REMARK  Name = scaffold
REMARK  6 active torsions:
REMARK  status: ('A' for Active; 'I' for Inactive)
REMARK    1  A    between atoms: C_3  and  O_4
REMARK    2  A    between atoms: C_5  and  C_17
REMARK    3  A    between atoms: C_15  and  C_20
REMARK    4  A    between atoms: C_15  and  C_23
REMARK    5  A    between atoms: C_16  and  C_17
REMARK    6  A    between atoms: C_23  and  O_25
REMARK                            x       y       z     vdW  Elec       q    Type
REMARK                         _______ _______ _______ _____ _____    ______ ____
ROOT
ATOM      1  C   UNL     1      32.380  -3.412  17.744  0.00  0.00    -0.024 A 
ATOM      2  C   UNL     1      31.109  -3.935  17.994  0.00  0.00    +0.000 A 
ATOM      3  C   UNL     1      30.575  -3.898  19.283  0.00  0.00    +0.074 A 
ATOM      4  C   UNL     1      31.349  -3.375  20.323  0.00  0.00    +0.008 A 
ATOM      5  C   UNL     1      32.626  -2.857  20.069  0.00  0.00    -0.049 A 
ATOM      6  C   UNL     1      33.465  -2.400  21.265  0.00  0.00    +0.058 C 
ATOM      7  C   UNL     1      34.943  -2.134  20.881  0.00  0.00    +0.018 C 
ATOM      8  C   UNL     1      34.986  -1.219  19.627  0.00  0.00    +0.000 C 
ATOM      9  C   UNL     1      36.406  -0.647  19.286  0.00  0.00    -0.004 C 
ATOM     10  C   UNL     1      36.379   0.251  17.996  0.00  0.00    +0.006 C 
ATOM     11  C   UNL     1      35.677   1.625  18.237  0.00  0.00    -0.039 C 
ATOM     12  C   UNL     1      35.676  -0.509  16.831  0.00  0.00    -0.032 C 
ATOM     13  C   UNL     1      34.279  -1.063  17.212  0.00  0.00    +0.006 C 
ATOM     14  C   UNL     1      34.417  -2.027  18.422  0.00  0.00    +0.030 C 
ATOM     15  C   UNL     1      33.109  -2.775  18.756  0.00  0.00    -0.048 A 
ENDROOT
BRANCH   3  16
ATOM     16  O   UNL     1      29.284  -4.389  19.504  0.00  0.00    -0.339 OA
ATOM     17  H   UNL     1      28.975  -4.288  20.398  0.00  0.00    +0.246 HD
ENDBRANCH   3  16
BRANCH   9  18
ATOM     18  C   UNL     1      37.313  -1.885  18.987  0.00  0.00    +0.179 C 
BRANCH  18  19
ATOM     19  C   UNL     1      38.254  -2.214  20.052  0.00  0.00    +0.089 C 
ATOM     20  N   UNL     1      38.997  -2.470  20.903  0.00  0.00    -0.304 NA
ENDBRANCH  18  19
ENDBRANCH   9  18
BRANCH  10  21
ATOM     21  C   UNL     1      37.806   0.455  17.511  0.00  0.00    +0.114 C 
BRANCH  21  22
ATOM     22  O   UNL     1      38.299   0.152  16.337  0.00  0.00    -0.246 OA
ATOM     23  H   UNL     1      39.219   0.388  16.309  0.00  0.00    +0.000 HD
ENDBRANCH  21  22
ENDBRANCH  10  21
TORSDOF 5
ENDMDL
MODEL 8
REMARK minimizedAffinity -6.51312685
REMARK minimizedRMSD -1
REMARK  Name = scaffold
REMARK  6 active torsions:
REMARK  status: ('A' for Active; 'I' for Inactive)
REMARK    1  A    between atoms: C_3  and  O_4
REMARK    2  A    between atoms: C_5  and  C_17
REMARK    3  A    between atoms: C_15  and  C_20
REMARK    4  A    between atoms: C_15  and  C_23
REMARK    5  A    between atoms: C_16  and  C_17
REMARK    6  A    between atoms: C_23  and  O_25
REMARK                            x       y       z     vdW  Elec       q    Type
REMARK                         _______ _______ _______ _____ _____    ______ ____
ROOT
ATOM      1  C   UNL     1      32.349   1.307  30.030  0.00  0.00    -0.024 A 
ATOM      2  C   UNL     1      33.659   1.704  30.315  0.00  0.00    +0.000 A 
ATOM      3  C   UNL     1      34.712   1.290  29.498  0.00  0.00    +0.074 A 
ATOM      4  C   UNL     1      34.441   0.437  28.423  0.00  0.00    +0.008 A 
ATOM      5  C   UNL     1      33.128   0.037  28.144  0.00  0.00    -0.049 A 
ATOM      6  C   UNL     1      32.912  -0.983  27.024  0.00  0.00    +0.058 C 
ATOM      7  C   UNL     1      31.472  -1.557  27.019  0.00  0.00    +0.018 C 
ATOM      8  C   UNL     1      30.456  -0.384  27.080  0.00  0.00    +0.000 C 
ATOM      9  C   UNL     1      28.968  -0.797  26.810  0.00  0.00    -0.004 C 
ATOM     10  C   UNL     1      27.994   0.434  26.910  0.00  0.00    +0.006 C 
ATOM     11  C   UNL     1      28.139   1.412  25.701  0.00  0.00    -0.039 C 
ATOM     12  C   UNL     1      28.235   1.199  28.246  0.00  0.00    -0.032 C 
ATOM     13  C   UNL     1      29.719   1.582  28.476  0.00  0.00    +0.006 C 
ATOM     14  C   UNL     1      30.592   0.297  28.475  0.00  0.00    +0.030 C 
ATOM     15  C   UNL     1      32.057   0.556  28.885  0.00  0.00    -0.048 A 
ENDROOT
BRANCH   3  16
ATOM     16  O   UNL     1      36.009   1.732  29.776  0.00  0.00    -0.339 OA
ATOM     17  H   UNL     1      36.663   1.444  29.149  0.00  0.00    +0.246 HD
ENDBRANCH   3  16
BRANCH   9  18
ATOM     18  C   UNL     1      28.583  -1.802  27.943  0.00  0.00    +0.179 C 
BRANCH  18  19
ATOM     19  C   UNL     1      28.259  -3.145  27.474  0.00  0.00    +0.089 C 
ATOM     20  N   UNL     1      28.011  -4.214  27.103  0.00  0.00    -0.304 NA
ENDBRANCH  18  19
ENDBRANCH   9  18
BRANCH  10  21
ATOM     21  C   UNL     1      26.566  -0.079  27.017  0.00  0.00    +0.114 C 
BRANCH  21  22
ATOM     22  O   UNL     1      25.852  -0.648  26.079  0.00  0.00    -0.246 OA
ATOM     23  H   UNL     1      24.994  -0.868  26.423  0.00  0.00    +0.000 HD
ENDBRANCH  21  22
ENDBRANCH  10  21
TORSDOF 5
ENDMDL
MODEL 9
REMARK minimizedAffinity -6.39490175
REMARK minimizedRMSD -1
REMARK  Name = scaffold
REMARK  6 active torsions:
REMARK  status: ('A' for Active; 'I' for Inactive)
REMARK    1  A    between atoms: C_3  and  O_4
REMARK    2  A    between atoms: C_5  and  C_17
REMARK    3  A    between atoms: C_15  and  C_20
REMARK    4  A    between atoms: C_15  and  C_23
REMARK    5  A    between atoms: C_16  and  C_17
REMARK    6  A    between atoms: C_23  and  O_25
REMARK                            x       y       z     vdW  Elec       q    Type
REMARK                         _______ _______ _______ _____ _____    ______ ____
ROOT
ATOM      1  C   UNL     1      33.858  -0.997  26.437  0.00  0.00    -0.024 A 
ATOM      2  C   UNL     1      35.203  -1.188  26.764  0.00  0.00    +0.000 A 
ATOM      3  C   UNL     1      35.629  -1.065  28.087  0.00  0.00    +0.074 A 
ATOM      4  C   UNL     1      34.700  -0.701  29.068  0.00  0.00    +0.008 A 
ATOM      5  C   UNL     1      33.354  -0.504  28.735  0.00  0.00    -0.049 A 
ATOM      6  C   UNL     1      32.411  -0.001  29.830  0.00  0.00    +0.058 C 
ATOM      7  C   UNL     1      31.042   0.455  29.265  0.00  0.00    +0.018 C 
ATOM      8  C   UNL     1      30.479  -0.656  28.337  0.00  0.00    +0.000 C 
ATOM      9  C   UNL     1      28.984  -0.452  27.910  0.00  0.00    -0.004 C 
ATOM     10  C   UNL     1      28.489  -1.600  26.956  0.00  0.00    +0.006 C 
ATOM     11  C   UNL     1      28.287  -2.956  27.703  0.00  0.00    -0.039 C 
ATOM     12  C   UNL     1      29.492  -1.784  25.777  0.00  0.00    -0.032 C 
ATOM     13  C   UNL     1      30.958  -1.975  26.242  0.00  0.00    +0.006 C 
ATOM     14  C   UNL     1      31.399  -0.746  27.083  0.00  0.00    +0.030 C 
ATOM     15  C   UNL     1      32.902  -0.755  27.432  0.00  0.00    -0.048 A 
ENDROOT
BRANCH   3  16
ATOM     16  O   UNL     1      36.971  -1.302  28.400  0.00  0.00    -0.339 OA
ATOM     17  H   UNL     1      37.174  -1.242  29.327  0.00  0.00    +0.246 HD
ENDBRANCH   3  16
BRANCH   9  18
ATOM     18  C   UNL     1      28.938   0.888  27.108  0.00  0.00    +0.179 C 
BRANCH  18  19
ATOM     19  C   UNL     1      28.442   2.030  27.869  0.00  0.00    +0.089 C 
ATOM     20  N   UNL     1      28.045   2.930  28.479  0.00  0.00    -0.304 NA
ENDBRANCH  18  19
ENDBRANCH   9  18
BRANCH  10  21
ATOM     21  C   UNL     1      27.195  -1.157  26.288  0.00  0.00    +0.114 C 
BRANCH  21  22
ATOM     22  O   UNL     1      26.060  -0.862  26.870  0.00  0.00    -0.246 OA
ATOM     23  H   UNL     1      25.421  -0.617  26.211  0.00  0.00    +0.000 HD
ENDBRANCH  21  22
ENDBRANCH  10  21
TORSDOF 5
ENDMDL
MODEL 10
REMARK minimizedAffinity -6.35427761
REMARK minimizedRMSD -1
REMARK  Name = scaffold
REMARK  6 active torsions:
REMARK  status: ('A' for Active; 'I' for Inactive)
REMARK    1  A    between atoms: C_3  and  O_4
REMARK    2  A    between atoms: C_5  and  C_17
REMARK    3  A    between atoms: C_15  and  C_20
REMARK    4  A    between atoms: C_15  and  C_23
REMARK    5  A    between atoms: C_16  and  C_17
REMARK    6  A    between atoms: C_23  and  O_25
REMARK                            x       y       z     vdW  Elec       q    Type
REMARK                         _______ _______ _______ _____ _____    ______ ____
ROOT
ATOM      1  C   UNL     1      29.665  -0.594  26.215  0.00  0.00    -0.024 A 
ATOM      2  C   UNL     1      28.476  -1.313  26.071  0.00  0.00    +0.000 A 
ATOM      3  C   UNL     1      28.345  -2.578  26.646  0.00  0.00    +0.074 A 
ATOM      4  C   UNL     1      29.437  -3.130  27.325  0.00  0.00    +0.008 A 
ATOM      5  C   UNL     1      30.629  -2.409  27.461  0.00  0.00    -0.049 A 
ATOM      6  C   UNL     1      31.820  -3.111  28.117  0.00  0.00    +0.058 C 
ATOM      7  C   UNL     1      33.142  -2.321  27.938  0.00  0.00    +0.018 C 
ATOM      8  C   UNL     1      32.911  -0.841  28.348  0.00  0.00    +0.000 C 
ATOM      9  C   UNL     1      34.220   0.012  28.476  0.00  0.00    -0.004 C 
ATOM     10  C   UNL     1      33.909   1.501  28.872  0.00  0.00    +0.006 C 
ATOM     11  C   UNL     1      33.448   1.643  30.358  0.00  0.00    -0.039 C 
ATOM     12  C   UNL     1      32.827   2.093  27.920  0.00  0.00    -0.032 C 
ATOM     13  C   UNL     1      31.553   1.216  27.817  0.00  0.00    +0.006 C 
ATOM     14  C   UNL     1      31.939  -0.201  27.312  0.00  0.00    +0.030 C 
ATOM     15  C   UNL     1      30.716  -1.089  26.997  0.00  0.00    -0.048 A 
ENDROOT
BRANCH   3  16
ATOM     16  O   UNL     1      27.132  -3.263  26.526  0.00  0.00    -0.339 OA
ATOM     17  H   UNL     1      27.107  -4.097  26.983  0.00  0.00    +0.246 HD
ENDBRANCH   3  16
BRANCH   9  18
ATOM     18  C   UNL     1      34.873   0.022  27.056  0.00  0.00    +0.179 C 
BRANCH  18  19
ATOM     19  C   UNL     1      36.243  -0.476  27.019  0.00  0.00    +0.089 C 
ATOM     20  N   UNL     1      37.328  -0.881  26.992  0.00  0.00    -0.304 NA
ENDBRANCH  18  19
ENDBRANCH   9  18
BRANCH  10  21
ATOM     21  C   UNL     1      35.148   2.346  28.612  0.00  0.00    +0.114 C 
BRANCH  21  22
ATOM     22  O   UNL     1      35.260   3.363  27.796  0.00  0.00    -0.246 OA
ATOM     23  H   UNL     1      36.147   3.702  27.833  0.00  0.00    +0.000 HD
ENDBRANCH  21  22
ENDBRANCH  10  21
TORSDOF 5
ENDMDL
MODEL 11
REMARK minimizedAffinity -6.1791687
REMARK minimizedRMSD -1
REMARK  Name = scaffold
REMARK  6 active torsions:
REMARK  status: ('A' for Active; 'I' for Inactive)
REMARK    1  A    between atoms: C_3  and  O_4
REMARK    2  A    between atoms: C_5  and  C_17
REMARK    3  A    between atoms: C_15  and  C_20
REMARK    4  A    between atoms: C_15  and  C_23
REMARK    5  A    between atoms: C_16  and  C_17
REMARK    6  A    between atoms: C_23  and  O_25
REMARK                            x       y       z     vdW  Elec       q    Type
REMARK                         _______ _______ _______ _____ _____    ______ ____
ROOT
ATOM      1  C   UNL     1      33.790   0.236  29.312  0.00  0.00    -0.024 A 
ATOM      2  C   UNL     1      34.649   1.314  29.546  0.00  0.00    +0.000 A 
ATOM      3  C   UNL     1      34.998   2.174  28.504  0.00  0.00    +0.074 A 
ATOM      4  C   UNL     1      34.516   1.911  27.218  0.00  0.00    +0.008 A 
ATOM      5  C   UNL     1      33.661   0.826  26.985  0.00  0.00    -0.049 A 
ATOM      6  C   UNL     1      33.257   0.529  25.539  0.00  0.00    +0.058 C 
ATOM      7  C   UNL     1      32.567  -0.851  25.392  0.00  0.00    +0.018 C 
ATOM      8  C   UNL     1      31.440  -0.972  26.454  0.00  0.00    +0.000 C 
ATOM      9  C   UNL     1      30.482  -2.197  26.251  0.00  0.00    -0.004 C 
ATOM     10  C   UNL     1      29.382  -2.269  27.373  0.00  0.00    +0.006 C 
ATOM     11  C   UNL     1      28.297  -1.155  27.221  0.00  0.00    -0.039 C 
ATOM     12  C   UNL     1      30.047  -2.177  28.779  0.00  0.00    -0.032 C 
ATOM     13  C   UNL     1      30.990  -0.957  28.935  0.00  0.00    +0.006 C 
ATOM     14  C   UNL     1      32.109  -1.027  27.860  0.00  0.00    +0.030 C 
ATOM     15  C   UNL     1      33.206   0.041  28.053  0.00  0.00    -0.048 A 
ENDROOT
BRANCH   3  16
ATOM     16  O   UNL     1      35.825   3.270  28.768  0.00  0.00    -0.339 OA
ATOM     17  H   UNL     1      35.981   3.833  28.018  0.00  0.00    +0.246 HD
ENDBRANCH   3  16
BRANCH   9  18
ATOM     18  C   UNL     1      31.375  -3.473  26.376  0.00  0.00    +0.179 C 
BRANCH  18  19
ATOM     19  C   UNL     1      32.066  -3.849  25.147  0.00  0.00    +0.089 C 
ATOM     20  N   UNL     1      32.610  -4.139  24.167  0.00  0.00    -0.304 NA
ENDBRANCH  18  19
ENDBRANCH   9  18
BRANCH  10  21
ATOM     21  C   UNL     1      28.743  -3.649  27.343  0.00  0.00    +0.114 C 
BRANCH  21  22
ATOM     22  O   UNL     1      27.650  -4.007  26.716  0.00  0.00    -0.246 OA
ATOM     23  H   UNL     1      27.484  -4.929  26.871  0.00  0.00    +0.000 HD
ENDBRANCH  21  22
ENDBRANCH  10  21
TORSDOF 5
ENDMDL
MODEL 12
REMARK minimizedAffinity -6.00259686
REMARK minimizedRMSD -1
REMARK  Name = scaffold
REMARK  6 active torsions:
REMARK  status: ('A' for Active; 'I' for Inactive)
REMARK    1  A    between atoms: C_3  and  O_4
REMARK    2  A    between atoms: C_5  and  C_17
REMARK    3  A    between atoms: C_15  and  C_20
REMARK    4  A    between atoms: C_15  and  C_23
REMARK    5  A    between atoms: C_16  and  C_17
REMARK    6  A    between atoms: C_23  and  O_25
REMARK                            x       y       z     vdW  Elec       q    Type
REMARK                         _______ _______ _______ _____ _____    ______ ____
ROOT
ATOM      1  C   UNL     1      28.542   0.889  27.767  0.00  0.00    -0.024 A 
ATOM      2  C   UNL     1      27.182   0.735  27.485  0.00  0.00    +0.000 A 
ATOM      3  C   UNL     1      26.758  -0.240  26.581  0.00  0.00    +0.074 A 
ATOM      4  C   UNL     1      27.716  -1.022  25.928  0.00  0.00    +0.008 A 
ATOM      5  C   UNL     1      29.079  -0.860  26.209  0.00  0.00    -0.049 A 
ATOM      6  C   UNL     1      30.082  -1.669  25.383  0.00  0.00    +0.058 C 
ATOM      7  C   UNL     1      31.540  -1.182  25.584  0.00  0.00    +0.018 C 
ATOM      8  C   UNL     1      31.836  -1.076  27.105  0.00  0.00    +0.000 C 
ATOM      9  C   UNL     1      33.347  -0.856  27.460  0.00  0.00    -0.004 C 
ATOM     10  C   UNL     1      33.570  -0.736  29.012  0.00  0.00    +0.006 C 
ATOM     11  C   UNL     1      33.401  -2.102  29.750  0.00  0.00    -0.039 C 
ATOM     12  C   UNL     1      32.591   0.318  29.611  0.00  0.00    -0.032 C 
ATOM     13  C   UNL     1      31.109   0.069  29.230  0.00  0.00    +0.006 C 
ATOM     14  C   UNL     1      30.964   0.078  27.684  0.00  0.00    +0.030 C 
ATOM     15  C   UNL     1      29.496   0.027  27.211  0.00  0.00    -0.048 A 
ENDROOT
BRANCH   3  16
ATOM     16  O   UNL     1      25.390  -0.406  26.344  0.00  0.00    -0.339 OA
ATOM     17  H   UNL     1      25.179  -1.118  25.751  0.00  0.00    +0.246 HD
ENDBRANCH   3  16
BRANCH   9  18
ATOM     18  C   UNL     1      33.753   0.507  26.813  0.00  0.00    +0.179 C 
BRANCH  18  19
ATOM     19  C   UNL     1      35.191   0.747  26.763  0.00  0.00    +0.089 C 
ATOM     20  N   UNL     1      36.332   0.945  26.729  0.00  0.00    -0.304 NA
ENDBRANCH  18  19
ENDBRANCH   9  18
BRANCH  10  21
ATOM     21  C   UNL     1      34.954  -0.157  29.264  0.00  0.00    +0.114 C 
BRANCH  21  22
ATOM     22  O   UNL     1      36.066  -0.816  29.472  0.00  0.00    -0.246 OA
ATOM     23  H   UNL     1      36.779  -0.201  29.601  0.00  0.00    +0.000 HD
ENDBRANCH  21  22
ENDBRANCH  10  21
TORSDOF 5
ENDMDL
MODEL 13
REMARK minimizedAffinity -5.77146292
REMARK minimizedRMSD -1
REMARK  Name = scaffold
REMARK  6 active torsions:
REMARK  status: ('A' for Active; 'I' for Inactive)
REMARK    1  A    between atoms: C_3  and  O_4
REMARK    2  A    between atoms: C_5  and  C_17
REMARK    3  A    between atoms: C_15  and  C_20
REMARK    4  A    between atoms: C_15  and  C_23
REMARK    5  A    between atoms: C_16  and  C_17
REMARK    6  A    between atoms: C_23  and  O_25
REMARK                            x       y       z     vdW  Elec       q    Type
REMARK                         _______ _______ _______ _____ _____    ______ ____
ROOT
ATOM      1  C   UNL     1      33.350   1.137  26.519  0.00  0.00    -0.024 A 
ATOM      2  C   UNL     1      34.557   1.750  26.865  0.00  0.00    +0.000 A 
ATOM      3  C   UNL     1      34.766   2.205  28.167  0.00  0.00    +0.074 A 
ATOM      4  C   UNL     1      33.733   2.083  29.102  0.00  0.00    +0.008 A 
ATOM      5  C   UNL     1      32.522   1.475  28.750  0.00  0.00    -0.049 A 
ATOM      6  C   UNL     1      31.394   1.471  29.784  0.00  0.00    +0.058 C 
ATOM      7  C   UNL     1      30.035   1.043  29.173  0.00  0.00    +0.018 C 
ATOM      8  C   UNL     1      30.230  -0.272  28.370  0.00  0.00    +0.000 C 
ATOM      9  C   UNL     1      28.896  -0.966  27.923  0.00  0.00    -0.004 C 
ATOM     10  C   UNL     1      29.169  -2.276  27.098  0.00  0.00    +0.006 C 
ATOM     11  C   UNL     1      29.700  -3.446  27.987  0.00  0.00    -0.039 C 
ATOM     12  C   UNL     1      30.177  -1.982  25.947  0.00  0.00    -0.032 C 
ATOM     13  C   UNL     1      31.478  -1.290  26.430  0.00  0.00    +0.006 C 
ATOM     14  C   UNL     1      31.122   0.048  27.133  0.00  0.00    +0.030 C 
ATOM     15  C   UNL     1      32.360   0.901  27.481  0.00  0.00    -0.048 A 
ENDROOT
BRANCH   3  16
ATOM     16  O   UNL     1      35.997   2.777  28.504  0.00  0.00    -0.339 OA
ATOM     17  H   UNL     1      36.078   3.022  29.419  0.00  0.00    +0.246 HD
ENDBRANCH   3  16
BRANCH   9  18
ATOM     18  C   UNL     1      28.172   0.049  26.981  0.00  0.00    +0.179 C 
BRANCH  18  19
ATOM     19  C   UNL     1      26.716  -0.053  26.989  0.00  0.00    +0.089 C 
ATOM     20  N   UNL     1      25.562  -0.140  26.987  0.00  0.00    -0.304 NA
ENDBRANCH  18  19
ENDBRANCH   9  18
BRANCH  10  21
ATOM     21  C   UNL     1      27.887  -2.682  26.387  0.00  0.00    +0.114 C 
BRANCH  21  22
ATOM     22  O   UNL     1      27.177  -3.765  26.581  0.00  0.00    -0.246 OA
ATOM     23  H   UNL     1      26.427  -3.760  25.999  0.00  0.00    +0.000 HD
ENDBRANCH  21  22
ENDBRANCH  10  21
TORSDOF 5
ENDMDL
MODEL 14
REMARK minimizedAffinity -5.75999689
REMARK minimizedRMSD -1
REMARK  Name = scaffold
REMARK  6 active torsions:
REMARK  status: ('A' for Active; 'I' for Inactive)
REMARK    1  A    between atoms: C_3  and  O_4
REMARK    2  A    between atoms: C_5  and  C_17
REMARK    3  A    between atoms: C_15  and  C_20
REMARK    4  A    between atoms: C_15  and  C_23
REMARK    5  A    between atoms: C_16  and  C_17
REMARK    6  A    between atoms: C_23  and  O_25
REMARK                            x       y       z     vdW  Elec       q    Type
REMARK                         _______ _______ _______ _____ _____    ______ ____
ROOT
ATOM      1  C   UNL     1      33.430  -2.806  18.019  0.00  0.00    -0.024 A 
ATOM      2  C   UNL     1      32.756  -3.688  18.868  0.00  0.00    +0.000 A 
ATOM      3  C   UNL     1      33.172  -3.847  20.190  0.00  0.00    +0.074 A 
ATOM      4  C   UNL     1      34.299  -3.149  20.635  0.00  0.00    +0.008 A 
ATOM      5  C   UNL     1      34.977  -2.271  19.779  0.00  0.00    -0.049 A 
ATOM      6  C   UNL     1      36.265  -1.623  20.291  0.00  0.00    +0.058 C 
ATOM      7  C   UNL     1      37.062  -0.923  19.161  0.00  0.00    +0.018 C 
ATOM      8  C   UNL     1      36.104   0.001  18.359  0.00  0.00    +0.000 C 
ATOM      9  C   UNL     1      36.821   0.975  17.361  0.00  0.00    -0.004 C 
ATOM     10  C   UNL     1      35.792   1.862  16.571  0.00  0.00    +0.006 C 
ATOM     11  C   UNL     1      35.136   2.962  17.466  0.00  0.00    -0.039 C 
ATOM     12  C   UNL     1      34.688   0.963  15.937  0.00  0.00    -0.032 C 
ATOM     13  C   UNL     1      34.010   0.011  16.956  0.00  0.00    +0.006 C 
ATOM     14  C   UNL     1      35.084  -0.903  17.605  0.00  0.00    +0.030 C 
ATOM     15  C   UNL     1      34.482  -2.013  18.493  0.00  0.00    -0.048 A 
ENDROOT
BRANCH   3  16
ATOM     16  O   UNL     1      32.458  -4.702  21.035  0.00  0.00    -0.339 OA
ATOM     17  H   UNL     1      32.776  -4.723  21.931  0.00  0.00    +0.246 HD
ENDBRANCH   3  16
BRANCH   9  18
ATOM     18  C   UNL     1      37.563   0.068  16.327  0.00  0.00    +0.179 C 
BRANCH  18  19
ATOM     19  C   UNL     1      38.933   0.479  16.038  0.00  0.00    +0.089 C 
ATOM     20  N   UNL     1      40.017   0.814  15.805  0.00  0.00    -0.304 NA
ENDBRANCH  18  19
ENDBRANCH   9  18
BRANCH  10  21
ATOM     21  C   UNL     1      36.500   2.491  15.381  0.00  0.00    +0.114 C 
BRANCH  21  22
ATOM     22  O   UNL     1      36.647   3.767  15.125  0.00  0.00    -0.246 OA
ATOM     23  H   UNL     1      37.131   3.873  14.314  0.00  0.00    +0.000 HD
ENDBRANCH  21  22
ENDBRANCH  10  21
TORSDOF 5
ENDMDL
MODEL 15
REMARK minimizedAffinity -5.41645813
REMARK minimizedRMSD -1
REMARK  Name = scaffold
REMARK  6 active torsions:
REMARK  status: ('A' for Active; 'I' for Inactive)
REMARK    1  A    between atoms: C_3  and  O_4
REMARK    2  A    between atoms: C_5  and  C_17
REMARK    3  A    between atoms: C_15  and  C_20
REMARK    4  A    between atoms: C_15  and  C_23
REMARK    5  A    between atoms: C_16  and  C_17
REMARK    6  A    between atoms: C_23  and  O_25
REMARK                            x       y       z     vdW  Elec       q    Type
REMARK                         _______ _______ _______ _____ _____    ______ ____
ROOT
ATOM      1  C   UNL     1      34.547   2.688  16.561  0.00  0.00    -0.024 A 
ATOM      2  C   UNL     1      34.752   3.828  15.779  0.00  0.00    +0.000 A 
ATOM      3  C   UNL     1      35.938   3.983  15.060  0.00  0.00    +0.074 A 
ATOM      4  C   UNL     1      36.932   3.006  15.173  0.00  0.00    +0.008 A 
ATOM      5  C   UNL     1      36.726   1.867  15.962  0.00  0.00    -0.049 A 
ATOM      6  C   UNL     1      37.893   0.891  16.132  0.00  0.00    +0.058 C 
ATOM      7  C   UNL     1      37.633  -0.149  17.251  0.00  0.00    +0.018 C 
ATOM      8  C   UNL     1      36.233  -0.788  17.038  0.00  0.00    +0.000 C 
ATOM      9  C   UNL     1      35.947  -2.044  17.931  0.00  0.00    -0.004 C 
ATOM     10  C   UNL     1      34.508  -2.624  17.678  0.00  0.00    +0.006 C 
ATOM     11  C   UNL     1      34.386  -3.345  16.297  0.00  0.00    -0.039 C 
ATOM     12  C   UNL     1      33.448  -1.486  17.781  0.00  0.00    -0.032 C 
ATOM     13  C   UNL     1      33.772  -0.261  16.889  0.00  0.00    +0.006 C 
ATOM     14  C   UNL     1      35.159   0.314  17.283  0.00  0.00    +0.030 C 
ATOM     15  C   UNL     1      35.487   1.649  16.579  0.00  0.00    -0.048 A 
ENDROOT
BRANCH   3  16
ATOM     16  O   UNL     1      36.106   5.111  14.251  0.00  0.00    -0.339 OA
ATOM     17  H   UNL     1      36.920   5.122  13.759  0.00  0.00    +0.246 HD
ENDBRANCH   3  16
BRANCH   9  18
ATOM     18  C   UNL     1      36.009  -1.549  19.412  0.00  0.00    +0.179 C 
BRANCH  18  19
ATOM     19  C   UNL     1      37.246  -1.883  20.109  0.00  0.00    +0.089 C 
ATOM     20  N   UNL     1      38.231  -2.153  20.655  0.00  0.00    -0.304 NA
ENDBRANCH  18  19
ENDBRANCH   9  18
BRANCH  10  21
ATOM     21  C   UNL     1      34.157  -3.575  18.813  0.00  0.00    +0.114 C 
BRANCH  21  22
ATOM     22  O   UNL     1      32.987  -4.095  19.082  0.00  0.00    -0.246 OA
ATOM     23  H   UNL     1      33.057  -4.654  19.848  0.00  0.00    +0.000 HD
ENDBRANCH  21  22
ENDBRANCH  10  21
TORSDOF 5
ENDMDL
MODEL 16
REMARK minimizedAffinity -5.30545235
REMARK minimizedRMSD -1
REMARK  Name = scaffold
REMARK  6 active torsions:
REMARK  status: ('A' for Active; 'I' for Inactive)
REMARK    1  A    between atoms: C_3  and  O_4
REMARK    2  A    between atoms: C_5  and  C_17
REMARK    3  A    between atoms: C_15  and  C_20
REMARK    4  A    between atoms: C_15  and  C_23
REMARK    5  A    between atoms: C_16  and  C_17
REMARK    6  A    between atoms: C_23  and  O_25
REMARK                            x       y       z     vdW  Elec       q    Type
REMARK                         _______ _______ _______ _____ _____    ______ ____
ROOT
ATOM      1  C   UNL     1      33.632  -1.940  29.173  0.00  0.00    -0.024 A 
ATOM      2  C   UNL     1      34.811  -1.729  29.892  0.00  0.00    +0.000 A 
ATOM      3  C   UNL     1      35.655  -0.667  29.563  0.00  0.00    +0.074 A 
ATOM      4  C   UNL     1      35.326   0.148  28.475  0.00  0.00    +0.008 A 
ATOM      5  C   UNL     1      34.146  -0.071  27.752  0.00  0.00    -0.049 A 
ATOM      6  C   UNL     1      33.900   0.786  26.508  0.00  0.00    +0.058 C 
ATOM      7  C   UNL     1      32.729   0.248  25.646  0.00  0.00    +0.018 C 
ATOM      8  C   UNL     1      31.497  -0.001  26.558  0.00  0.00    +0.000 C 
ATOM      9  C   UNL     1      30.162  -0.287  25.787  0.00  0.00    -0.004 C 
ATOM     10  C   UNL     1      28.965  -0.551  26.772  0.00  0.00    +0.006 C 
ATOM     11  C   UNL     1      28.488   0.747  27.498  0.00  0.00    -0.039 C 
ATOM     12  C   UNL     1      29.365  -1.632  27.822  0.00  0.00    -0.032 C 
ATOM     13  C   UNL     1      30.693  -1.314  28.555  0.00  0.00    +0.006 C 
ATOM     14  C   UNL     1      31.840  -1.181  27.516  0.00  0.00    +0.030 C 
ATOM     15  C   UNL     1      33.235  -1.053  28.163  0.00  0.00    -0.048 A 
ENDROOT
BRANCH   3  16
ATOM     16  O   UNL     1      36.809  -0.449  30.322  0.00  0.00    -0.339 OA
ATOM     17  H   UNL     1      37.307   0.319  30.064  0.00  0.00    +0.246 HD
ENDBRANCH   3  16
BRANCH   9  18
ATOM     18  C   UNL     1      30.404  -1.596  24.969  0.00  0.00    +0.179 C 
BRANCH  18  19
ATOM     19  C   UNL     1      31.323  -1.444  23.846  0.00  0.00    +0.089 C 
ATOM     20  N   UNL     1      32.059  -1.322  22.960  0.00  0.00    -0.304 NA
ENDBRANCH  18  19
ENDBRANCH   9  18
BRANCH  10  21
ATOM     21  C   UNL     1      27.821  -1.183  25.993  0.00  0.00    +0.114 C 
BRANCH  21  22
ATOM     22  O   UNL     1      27.339  -2.392  26.128  0.00  0.00    -0.246 OA
ATOM     23  H   UNL     1      26.626  -2.519  25.512  0.00  0.00    +0.000 HD
ENDBRANCH  21  22
ENDBRANCH  10  21
TORSDOF 5
ENDMDL
MODEL 17
REMARK minimizedAffinity -5.29646826
REMARK minimizedRMSD -1
REMARK  Name = scaffold
REMARK  6 active torsions:
REMARK  status: ('A' for Active; 'I' for Inactive)
REMARK    1  A    between atoms: C_3  and  O_4
REMARK    2  A    between atoms: C_5  and  C_17
REMARK    3  A    between atoms: C_15  and  C_20
REMARK    4  A    between atoms: C_15  and  C_23
REMARK    5  A    between atoms: C_16  and  C_17
REMARK    6  A    between atoms: C_23  and  O_25
REMARK                            x       y       z     vdW  Elec       q    Type
REMARK                         _______ _______ _______ _____ _____    ______ ____
ROOT
ATOM      1  C   UNL     1      32.813  -3.876  25.991  0.00  0.00    -0.024 A 
ATOM      2  C   UNL     1      32.483  -3.652  27.330  0.00  0.00    +0.000 A 
ATOM      3  C   UNL     1      31.912  -2.440  27.720  0.00  0.00    +0.074 A 
ATOM      4  C   UNL     1      31.721  -1.441  26.760  0.00  0.00    +0.008 A 
ATOM      5  C   UNL     1      32.060  -1.667  25.420  0.00  0.00    -0.049 A 
ATOM      6  C   UNL     1      31.929  -0.497  24.441  0.00  0.00    +0.058 C 
ATOM      7  C   UNL     1      32.608  -0.791  23.079  0.00  0.00    +0.018 C 
ATOM      8  C   UNL     1      32.129  -2.174  22.558  0.00  0.00    +0.000 C 
ATOM      9  C   UNL     1      32.520  -2.482  21.072  0.00  0.00    -0.004 C 
ATOM     10  C   UNL     1      32.023  -3.904  20.621  0.00  0.00    +0.006 C 
ATOM     11  C   UNL     1      30.475  -3.962  20.423  0.00  0.00    -0.039 C 
ATOM     12  C   UNL     1      32.469  -4.979  21.657  0.00  0.00    -0.032 C 
ATOM     13  C   UNL     1      32.069  -4.633  23.114  0.00  0.00    +0.006 C 
ATOM     14  C   UNL     1      32.695  -3.268  23.512  0.00  0.00    +0.030 C 
ATOM     15  C   UNL     1      32.511  -2.928  25.006  0.00  0.00    -0.048 A 
ENDROOT
BRANCH   3  16
ATOM     16  O   UNL     1      31.551  -2.252  29.058  0.00  0.00    -0.339 OA
ATOM     17  H   UNL     1      31.127  -1.419  29.235  0.00  0.00    +0.246 HD
ENDBRANCH   3  16
BRANCH   9  18
ATOM     18  C   UNL     1      34.082  -2.485  21.025  0.00  0.00    +0.179 C 
BRANCH  18  19
ATOM     19  C   UNL     1      34.653  -1.772  19.887  0.00  0.00    +0.089 C 
ATOM     20  N   UNL     1      35.098  -1.206  18.980  0.00  0.00    -0.304 NA
ENDBRANCH  18  19
ENDBRANCH   9  18
BRANCH  10  21
ATOM     21  C   UNL     1      32.743  -4.289  19.337  0.00  0.00    +0.114 C 
BRANCH  21  22
ATOM     22  O   UNL     1      32.466  -3.897  18.120  0.00  0.00    -0.246 OA
ATOM     23  H   UNL     1      33.078  -4.294  17.511  0.00  0.00    +0.000 HD
ENDBRANCH  21  22
ENDBRANCH  10  21
TORSDOF 5
ENDMDL
MODEL 18
REMARK minimizedAffinity -4.96944046
REMARK minimizedRMSD -1
REMARK  Name = scaffold
REMARK  6 active torsions:
REMARK  status: ('A' for Active; 'I' for Inactive)
REMARK    1  A    between atoms: C_3  and  O_4
REMARK    2  A    between atoms: C_5  and  C_17
REMARK    3  A    between atoms: C_15  and  C_20
REMARK    4  A    between atoms: C_15  and  C_23
REMARK    5  A    between atoms: C_16  and  C_17
REMARK    6  A    between atoms: C_23  and  O_25
REMARK                            x       y       z     vdW  Elec       q    Type
REMARK                         _______ _______ _______ _____ _____    ______ ____
ROOT
ATOM      1  C   UNL     1      32.815  -3.481  25.475  0.00  0.00    -0.024 A 
ATOM      2  C   UNL     1      32.815  -4.326  24.362  0.00  0.00    +0.000 A 
ATOM      3  C   UNL     1      32.475  -3.829  23.102  0.00  0.00    +0.074 A 
ATOM      4  C   UNL     1      32.089  -2.490  22.983  0.00  0.00    +0.008 A 
ATOM      5  C   UNL     1      32.083  -1.648  24.102  0.00  0.00    -0.049 A 
ATOM      6  C   UNL     1      31.547  -0.226  23.926  0.00  0.00    +0.058 C 
ATOM      7  C   UNL     1      31.320   0.490  25.282  0.00  0.00    +0.018 C 
ATOM      8  C   UNL     1      32.596   0.345  26.155  0.00  0.00    +0.000 C 
ATOM      9  C   UNL     1      32.614   1.245  27.439  0.00  0.00    -0.004 C 
ATOM     10  C   UNL     1      33.922   1.031  28.283  0.00  0.00    +0.006 C 
ATOM     11  C   UNL     1      35.184   1.652  27.602  0.00  0.00    -0.039 C 
ATOM     12  C   UNL     1      34.150  -0.490  28.539  0.00  0.00    -0.032 C 
ATOM     13  C   UNL     1      34.118  -1.343  27.246  0.00  0.00    +0.006 C 
ATOM     14  C   UNL     1      32.749  -1.158  26.536  0.00  0.00    +0.030 C 
ATOM     15  C   UNL     1      32.549  -2.112  25.340  0.00  0.00    -0.048 A 
ENDROOT
BRANCH   3  16
ATOM     16  O   UNL     1      32.521  -4.681  21.995  0.00  0.00    -0.339 OA
ATOM     17  H   UNL     1      32.320  -4.259  21.167  0.00  0.00    +0.246 HD
ENDBRANCH   3  16
BRANCH   9  18
ATOM     18  C   UNL     1      31.402   0.782  28.311  0.00  0.00    +0.179 C 
BRANCH  18  19
ATOM     19  C   UNL     1      30.270   1.703  28.308  0.00  0.00    +0.089 C 
ATOM     20  N   UNL     1      29.375   2.438  28.315  0.00  0.00    -0.304 NA
ENDBRANCH  18  19
ENDBRANCH   9  18
BRANCH  10  21
ATOM     21  C   UNL     1      33.713   1.623  29.669  0.00  0.00    +0.114 C 
BRANCH  21  22
ATOM     22  O   UNL     1      32.786   1.309  30.537  0.00  0.00    -0.246 OA
ATOM     23  H   UNL     1      32.892   1.837  31.320  0.00  0.00    +0.000 HD
ENDBRANCH  21  22
ENDBRANCH  10  21
TORSDOF 5
ENDMDL
MODEL 19
REMARK minimizedAffinity -4.85268879
REMARK minimizedRMSD -1
REMARK  Name = scaffold
REMARK  6 active torsions:
REMARK  status: ('A' for Active; 'I' for Inactive)
REMARK    1  A    between atoms: C_3  and  O_4
REMARK    2  A    between atoms: C_5  and  C_17
REMARK    3  A    between atoms: C_15  and  C_20
REMARK    4  A    between atoms: C_15  and  C_23
REMARK    5  A    between atoms: C_16  and  C_17
REMARK    6  A    between atoms: C_23  and  O_25
REMARK                            x       y       z     vdW  Elec       q    Type
REMARK                         _______ _______ _______ _____ _____    ______ ____
ROOT
ATOM      1  C   UNL     1      34.458  -0.810  16.916  0.00  0.00    -0.024 A 
ATOM      2  C   UNL     1      35.332  -0.278  15.964  0.00  0.00    +0.000 A 
ATOM      3  C   UNL     1      36.698  -0.187  16.236  0.00  0.00    +0.074 A 
ATOM      4  C   UNL     1      37.167  -0.592  17.490  0.00  0.00    +0.008 A 
ATOM      5  C   UNL     1      36.287  -1.119  18.444  0.00  0.00    -0.049 A 
ATOM      6  C   UNL     1      36.844  -1.439  19.833  0.00  0.00    +0.058 C 
ATOM      7  C   UNL     1      35.724  -1.727  20.865  0.00  0.00    +0.018 C 
ATOM      8  C   UNL     1      34.737  -2.767  20.269  0.00  0.00    +0.000 C 
ATOM      9  C   UNL     1      33.709  -3.355  21.297  0.00  0.00    -0.004 C 
ATOM     10  C   UNL     1      32.730  -4.382  20.621  0.00  0.00    +0.006 C 
ATOM     11  C   UNL     1      33.430  -5.732  20.263  0.00  0.00    -0.039 C 
ATOM     12  C   UNL     1      32.098  -3.754  19.342  0.00  0.00    -0.032 C 
ATOM     13  C   UNL     1      33.147  -3.180  18.356  0.00  0.00    +0.006 C 
ATOM     14  C   UNL     1      33.994  -2.095  19.075  0.00  0.00    +0.030 C 
ATOM     15  C   UNL     1      34.939  -1.331  18.124  0.00  0.00    -0.048 A 
ENDROOT
BRANCH   3  16
ATOM     16  O   UNL     1      37.560   0.309  15.255  0.00  0.00    -0.339 OA
ATOM     17  H   UNL     1      38.479   0.298  15.499  0.00  0.00    +0.246 HD
ENDBRANCH   3  16
BRANCH   9  18
ATOM     18  C   UNL     1      32.858  -2.145  21.801  0.00  0.00    +0.179 C 
BRANCH  18  19
ATOM     19  C   UNL     1      32.558  -2.172  23.229  0.00  0.00    +0.089 C 
ATOM     20  N   UNL     1      32.327  -2.199  24.363  0.00  0.00    -0.304 NA
ENDBRANCH  18  19
ENDBRANCH   9  18
BRANCH  10  21
ATOM     21  C   UNL     1      31.550  -4.619  21.551  0.00  0.00    +0.114 C 
BRANCH  21  22
ATOM     22  O   UNL     1      31.016  -5.767  21.883  0.00  0.00    -0.246 OA
ATOM     23  H   UNL     1      30.292  -5.619  22.480  0.00  0.00    +0.000 HD
ENDBRANCH  21  22
ENDBRANCH  10  21
TORSDOF 5
ENDMDL
MODEL 20
REMARK minimizedAffinity -4.73177433
REMARK minimizedRMSD -1
REMARK  Name = scaffold
REMARK  6 active torsions:
REMARK  status: ('A' for Active; 'I' for Inactive)
REMARK    1  A    between atoms: C_3  and  O_4
REMARK    2  A    between atoms: C_5  and  C_17
REMARK    3  A    between atoms: C_15  and  C_20
REMARK    4  A    between atoms: C_15  and  C_23
REMARK    5  A    between atoms: C_16  and  C_17
REMARK    6  A    between atoms: C_23  and  O_25
REMARK                            x       y       z     vdW  Elec       q    Type
REMARK                         _______ _______ _______ _____ _____    ______ ____
ROOT
ATOM      1  C   UNL     1      28.414  -0.645  27.844  0.00  0.00    -0.024 A 
ATOM      2  C   UNL     1      27.354   0.265  27.863  0.00  0.00    +0.000 A 
ATOM      3  C   UNL     1      27.579   1.612  27.577  0.00  0.00    +0.074 A 
ATOM      4  C   UNL     1      28.885   2.042  27.320  0.00  0.00    +0.008 A 
ATOM      5  C   UNL     1      29.946   1.127  27.308  0.00  0.00    -0.049 A 
ATOM      6  C   UNL     1      31.363   1.676  27.130  0.00  0.00    +0.058 C 
ATOM      7  C   UNL     1      32.450   0.612  27.431  0.00  0.00    +0.018 C 
ATOM      8  C   UNL     1      32.118  -0.689  26.651  0.00  0.00    +0.000 C 
ATOM      9  C   UNL     1      33.267  -1.756  26.644  0.00  0.00    -0.004 C 
ATOM     10  C   UNL     1      32.855  -3.052  25.857  0.00  0.00    +0.006 C 
ATOM     11  C   UNL     1      32.802  -2.825  24.312  0.00  0.00    -0.039 C 
ATOM     12  C   UNL     1      31.476  -3.571  26.366  0.00  0.00    -0.032 C 
ATOM     13  C   UNL     1      30.371  -2.484  26.363  0.00  0.00    +0.006 C 
ATOM     14  C   UNL     1      30.814  -1.292  27.254  0.00  0.00    +0.030 C 
ATOM     15  C   UNL     1      29.701  -0.244  27.466  0.00  0.00    -0.048 A 
ENDROOT
BRANCH   3  16
ATOM     16  O   UNL     1      26.498   2.499  27.561  0.00  0.00    -0.339 OA
ATOM     17  H   UNL     1      26.726   3.389  27.315  0.00  0.00    +0.246 HD
ENDBRANCH   3  16
BRANCH   9  18
ATOM     18  C   UNL     1      33.497  -2.157  28.137  0.00  0.00    +0.179 C 
BRANCH  18  19
ATOM     19  C   UNL     1      34.612  -1.472  28.781  0.00  0.00    +0.089 C 
ATOM     20  N   UNL     1      35.500  -0.924  29.285  0.00  0.00    -0.304 NA
ENDBRANCH  18  19
ENDBRANCH   9  18
BRANCH  10  21
ATOM     21  C   UNL     1      33.832  -4.166  26.202  0.00  0.00    +0.114 C 
BRANCH  21  22
ATOM     22  O   UNL     1      33.605  -5.222  26.942  0.00  0.00    -0.246 OA
ATOM     23  H   UNL     1      34.394  -5.750  26.990  0.00  0.00    +0.000 HD
ENDBRANCH  21  22
ENDBRANCH  10  21
TORSDOF 5
ENDMDL
