REMARK  Name = C19
REMARK  9 active torsions:
REMARK  status: ('A' for Active; 'I' for Inactive)
REMARK    1  A    between atoms: C1_1  and  C12_12
REMARK    2  A    between atoms: C2_2  and  C19_19
REMARK    3  A    between atoms: C7_7  and  O8_8
REMARK    4  A    between atoms: C15_15  and  O16_16
REMARK    5  A    between atoms: C22_22  and  O25_25
REMARK    6  A    between atoms: O25_25  and  C26_26
REMARK    7  A    between atoms: C26_26  and  C27_27
REMARK    8  A    between atoms: C27_27  and  C28_28
REMARK    9  A    between atoms: C27_27  and  N29_29
REMARK                            x       y       z     vdW  Elec       q    Type
REMARK                         _______ _______ _______ _____ _____    ______ ____
ROOT
ATOM      1  C   UNL     1      31.015  -0.099  28.871  0.00  0.00    +0.146 C 
ATOM      2  S   UNL     1      29.564   0.833  28.279  0.00  0.00    -0.089 S 
ATOM      3  C   UNL     1      28.373  -0.427  27.855  0.00  0.00    +0.039 A 
ATOM      4  C   UNL     1      27.114  -0.039  27.382  0.00  0.00    +0.017 A 
ATOM      5  C   UNL     1      26.173  -0.997  26.981  0.00  0.00    +0.070 A 
ATOM      6  C   UNL     1      26.525  -2.349  27.002  0.00  0.00    -0.003 A 
ATOM      7  C   UNL     1      27.769  -2.743  27.498  0.00  0.00    +0.003 A 
ATOM      8  C   UNL     1      28.669  -1.791  27.982  0.00  0.00    +0.095 A 
ATOM      9  O   UNL     1      29.833  -2.233  28.604  0.00  0.00    -0.311 OA
ATOM     10  C   UNL     1      31.065  -1.556  28.352  0.00  0.00    +0.210 C 
ENDROOT
BRANCH   1  11
ATOM     11  C   UNL     1      32.373   0.556  28.584  0.00  0.00    -0.034 A 
ATOM     12  C   UNL     1      33.464   0.243  29.403  0.00  0.00    -0.014 A 
ATOM     13  C   UNL     1      34.736   0.731  29.103  0.00  0.00    +0.013 A 
ATOM     14  C   UNL     1      34.926   1.544  27.983  0.00  0.00    +0.081 A 
ATOM     15  C   UNL     1      33.825   1.924  27.207  0.00  0.00    +0.013 A 
ATOM     16  C   UNL     1      32.552   1.438  27.514  0.00  0.00    -0.014 A 
BRANCH  14  17
ATOM     17  O   UNL     1      36.218   1.954  27.660  0.00  0.00    -0.338 OA
ATOM     18  H   UNL     1      36.263   2.468  26.866  0.00  0.00    +0.246 HD
ENDBRANCH  14  17
ENDBRANCH   1  11
BRANCH  10  19
ATOM     19  C   UNL     1      31.561  -1.777  26.905  0.00  0.00    -0.018 A 
ATOM     20  C   UNL     1      31.029  -1.082  25.814  0.00  0.00    -0.013 A 
ATOM     21  C   UNL     1      31.483  -1.336  24.516  0.00  0.00    +0.013 A 
ATOM     22  C   UNL     1      32.457  -2.304  24.263  0.00  0.00    +0.084 A 
ATOM     23  C   UNL     1      33.023  -2.976  25.354  0.00  0.00    +0.013 A 
ATOM     24  C   UNL     1      32.576  -2.711  26.652  0.00  0.00    -0.013 A 
BRANCH  22  25
ATOM     25  O   UNL     1      32.844  -2.557  22.935  0.00  0.00    -0.321 OA
BRANCH  25  26
ATOM     26  C   UNL     1      33.144  -3.897  22.500  0.00  0.00    +0.209 C 
BRANCH  26  27
ATOM     27  C   UNL     1      33.509  -3.961  20.987  0.00  0.00    +0.084 C 
ATOM     28  C   UNL     1      34.461  -2.798  20.584  0.00  0.00    +0.027 C 
BRANCH  27  29
ATOM     29  N   UNL     1      32.290  -4.037  20.146  0.00  0.00    -0.297 NA
ATOM     30  C   UNL     1      31.180  -3.093  20.392  0.00  0.00    +0.085 C 
ATOM     31  C   UNL     1      30.467  -2.932  19.031  0.00  0.00    +0.017 C 
ATOM     32  C   UNL     1      31.636  -3.102  18.042  0.00  0.00    +0.017 C 
ATOM     33  C   UNL     1      32.419  -4.265  18.689  0.00  0.00    +0.085 C 
ENDBRANCH  27  29
ENDBRANCH  26  27
ENDBRANCH  25  26
ENDBRANCH  22  25
ENDBRANCH  10  19
BRANCH   5  34
ATOM     34  O   UNL     1      24.890  -0.635  26.557  0.00  0.00    -0.342 OA
ATOM     35  H   UNL     1      24.720   0.300  26.543  0.00  0.00    +0.244 HD
ENDBRANCH   5  34
TORSDOF 8
