REMARK  Name = 112
REMARK  16 active torsions:
REMARK  status: ('A' for Active; 'I' for Inactive)
REMARK    1  A    between atoms: C_3  and  O_4
REMARK    2  A    between atoms: C_5  and  C_17
REMARK    3  A    between atoms: C_5  and  C_56
REMARK    4  A    between atoms: C_15  and  C_20
REMARK    5  A    between atoms: C_15  and  C_23
REMARK    6  A    between atoms: C_16  and  C_17
REMARK    7  A    between atoms: C_23  and  O_25
REMARK    8  A    between atoms: C_27  and  C_28
REMARK    9  A    between atoms: C_27  and  C_56
REMARK   10  A    between atoms: C_28  and  C_30
REMARK   11  A    between atoms: C_30  and  C_32
REMARK   12  A    between atoms: C_32  and  C_47
REMARK   13  A    between atoms: C_47  and  C_48
REMARK   14  A    between atoms: C_48  and  C_49
REMARK   15  A    between atoms: C_49  and  C_50
REMARK   16  A    between atoms: C_50  and  C_51
REMARK                            x       y       z     vdW  Elec       q    Type
REMARK                         _______ _______ _______ _____ _____    ______ ____
ROOT
ATOM      1  C   UNL     1      -0.565  -1.858   7.193  0.00  0.00    -0.024 A 
ATOM      2  C   UNL     1      -1.440  -2.580   8.007  0.00  0.00    +0.000 A 
ATOM      3  C   UNL     1      -2.728  -2.881   7.562  0.00  0.00    +0.074 A 
ATOM      4  C   UNL     1      -3.143  -2.403   6.314  0.00  0.00    +0.008 A 
ATOM      5  C   UNL     1      -2.267  -1.666   5.508  0.00  0.00    -0.049 A 
ATOM      6  C   UNL     1      -2.811  -1.067   4.210  0.00  0.00    +0.058 C 
ATOM      7  C   UNL     1      -1.848  -0.018   3.598  0.00  0.00    +0.017 C 
ATOM      8  C   UNL     1      -0.420  -0.624   3.492  0.00  0.00    -0.011 C 
ATOM      9  C   UNL     1       0.622   0.213   2.662  0.00  0.00    -0.066 C 
ATOM     10  C   UNL     1       2.016  -0.518   2.612  0.00  0.00    -0.024 C 
ATOM     11  C   UNL     1       2.009  -1.793   1.707  0.00  0.00    -0.096 C 
ATOM     12  C   UNL     1       2.476  -0.892   4.055  0.00  0.00    -0.079 C 
ATOM     13  C   UNL     1       1.415  -1.692   4.852  0.00  0.00    -0.004 C 
ATOM     14  C   UNL     1       0.107  -0.859   4.940  0.00  0.00    +0.028 C 
ATOM     15  C   UNL     1      -0.934  -1.481   5.895  0.00  0.00    -0.049 A 
ENDROOT
BRANCH   3  16
ATOM     16  O   UNL     1      -3.573  -3.645   8.373  0.00  0.00    -0.339 OA
ATOM     17  H   UNL     1      -4.416  -3.843   7.982  0.00  0.00    +0.246 HD
ENDBRANCH   3  16
BRANCH   9  18
ATOM     18  C   UNL     1       0.063   0.607   1.252  0.00  0.00    -0.012 C 
BRANCH  18  19
ATOM     19  C   UNL     1       1.017   1.397   0.309  0.00  0.00    +0.010 C 
BRANCH  19  20
ATOM     20  C   UNL     1       0.276   1.905  -0.959  0.00  0.00    +0.035 C 
BRANCH  20  21
ATOM     21  C   UNL     1       1.205   2.643  -1.893  0.00  0.00    -0.099 C 
BRANCH  21  22
ATOM     22  C   UNL     1       0.627   3.130  -3.199  0.00  0.00    +0.035 C 
BRANCH  22  23
ATOM     23  C   UNL     1       1.695   3.840  -4.074  0.00  0.00    +0.012 C 
BRANCH  23  24
ATOM     24  C   UNL     1       1.087   4.338  -5.414  0.00  0.00    +0.002 C 
BRANCH  24  25
ATOM     25  C   UNL     1       2.154   5.047  -6.293  0.00  0.00    +0.000 C 
BRANCH  25  26
ATOM     26  C   UNL     1       1.542   5.547  -7.630  0.00  0.00    -0.000 C 
BRANCH  26  27
ATOM     27  C   UNL     1       2.606   6.260  -8.510  0.00  0.00    -0.000 C 
BRANCH  27  28
ATOM     28  C   UNL     1       1.992   6.762  -9.845  0.00  0.00    -0.003 C 
ATOM     29  C   UNL     1       3.054   7.480 -10.723  0.00  0.00    +0.004 C 
ENDBRANCH  27  28
ENDBRANCH  26  27
ENDBRANCH  25  26
ENDBRANCH  24  25
ENDBRANCH  23  24
ENDBRANCH  22  23
ENDBRANCH  21  22
ENDBRANCH  20  21
ENDBRANCH  19  20
ENDBRANCH  18  19
ENDBRANCH   9  18
BRANCH  10  30
ATOM     30  C   UNL     1       3.097   0.445   2.152  0.00  0.00    +0.266 C 
BRANCH  30  31
ATOM     31  O   UNL     1       3.971  -0.022   1.249  0.00  0.00    -0.261 OA
ATOM     32  H   UNL     1       4.635   0.609   0.991  0.00  0.00    +0.320 HD
ENDBRANCH  30  31
ENDBRANCH  10  30
TORSDOF 14
