REMARK  Name = 302
REMARK  5 active torsions:
REMARK  status: ('A' for Active; 'I' for Inactive)
REMARK    1  A    between atoms: C_3  and  O_4
REMARK    2  A    between atoms: C_5  and  C_17
REMARK    3  A    between atoms: C_15  and  C_20
REMARK    4  A    between atoms: C_15  and  C_23
REMARK    5  A    between atoms: C_16  and  C_17
REMARK                            x       y       z     vdW  Elec       q    Type
REMARK                         _______ _______ _______ _____ _____    ______ ____
ROOT
ATOM      1  C   UNL     1       2.022  -0.685   5.926  0.00  0.00    -0.024 A 
ATOM      2  C   UNL     1       2.086  -1.323   7.168  0.00  0.00    +0.000 A 
ATOM      3  C   UNL     1       0.926  -1.819   7.764  0.00  0.00    +0.074 A 
ATOM      4  C   UNL     1      -0.302  -1.627   7.121  0.00  0.00    +0.008 A 
ATOM      5  C   UNL     1      -0.364  -0.979   5.881  0.00  0.00    -0.049 A 
ATOM      6  C   UNL     1      -1.745  -0.700   5.285  0.00  0.00    +0.058 C 
ATOM      7  C   UNL     1      -1.681   0.281   4.088  0.00  0.00    +0.018 C 
ATOM      8  C   UNL     1      -0.599  -0.205   3.086  0.00  0.00    +0.003 C 
ATOM      9  C   UNL     1      -0.604   0.532   1.702  0.00  0.00    +0.013 C 
ATOM     10  C   UNL     1       0.527  -0.011   0.756  0.00  0.00    +0.034 C 
ATOM     11  C   UNL     1       0.215  -1.432   0.188  0.00  0.00    -0.014 C 
ATOM     12  C   UNL     1       1.897  -0.002   1.496  0.00  0.00    -0.011 C 
ATOM     13  C   UNL     1       1.855  -0.734   2.861  0.00  0.00    +0.009 C 
ATOM     14  C   UNL     1       0.792  -0.064   3.775  0.00  0.00    +0.030 C 
ATOM     15  C   UNL     1       0.813  -0.595   5.224  0.00  0.00    -0.048 A 
ENDROOT
BRANCH  10  16
ATOM     16  C   UNL     1       0.735   0.936  -0.412  0.00  0.00    +0.167 C 
ATOM     17  O   UNL     1       1.136   0.447  -1.584  0.00  0.00    -0.283 OA
ATOM     18  C   UNL     1       0.966   1.509  -2.525  0.00  0.00    +0.226 C 
ATOM     19  C   UNL     1       0.934   2.762  -1.623  0.00  0.00    +0.169 C 
ATOM     20  N   UNL     1       0.581   2.196  -0.345  0.00  0.00    -0.254 NA
ENDBRANCH  10  16
BRANCH   3  21
ATOM     21  O   UNL     1       1.017  -2.489   8.988  0.00  0.00    -0.339 OA
ATOM     22  H   UNL     1       0.188  -2.813   9.320  0.00  0.00    +0.246 HD
ENDBRANCH   3  21
BRANCH   9  23
ATOM     23  C   UNL     1      -2.013   0.488   1.027  0.00  0.00    +0.183 C 
BRANCH  23  24
ATOM     24  C   UNL     1      -2.045   0.994  -0.340  0.00  0.00    +0.089 C 
ATOM     25  N   UNL     1      -2.082   1.395  -1.425  0.00  0.00    -0.304 NA
ENDBRANCH  23  24
ENDBRANCH   9  23
TORSDOF 4
