REMARK  Name = 2733526
REMARK  11 active torsions:
REMARK  status: ('A' for Active; 'I' for Inactive)
REMARK    1  A    between atoms: O_1  and  C_12
REMARK    2  A    between atoms: O_1  and  C_20
REMARK    3  A    between atoms: N_2  and  C_19
REMARK    4  A    between atoms: N_2  and  C_27
REMARK    5  A    between atoms: N_2  and  C_28
REMARK    6  A    between atoms: C_3  and  C_5
REMARK    7  A    between atoms: C_3  and  C_7
REMARK    8  A    between atoms: C_4  and  C_6
REMARK    9  A    between atoms: C_4  and  C_8
REMARK   10  A    between atoms: C_6  and  C_11
REMARK   11  A    between atoms: C_19  and  C_20
REMARK                            x       y       z     vdW  Elec       q    Type
REMARK                         _______ _______ _______ _____ _____    ______ ____
ROOT
ATOM      1  C   UNL     1      -1.984   0.190  -0.089  0.00  0.00    -0.007 C 
ATOM      2  C   UNL     1      -2.378  -1.124   0.009  0.00  0.00    -0.032 C 
ENDROOT
BRANCH   1   6
ATOM      3  C   UNL     1       2.095   1.190  -0.630  0.00  0.00    +0.121 A 
ATOM      4  C   UNL     1       1.579   1.077   0.656  0.00  0.00    +0.046 A 
ATOM      5  C   UNL     1       0.235   0.747   0.834  0.00  0.00    +0.012 A 
ATOM      6  C   UNL     1      -0.584   0.534  -0.275  0.00  0.00    -0.017 A 
ATOM      7  C   UNL     1      -0.059   0.650  -1.562  0.00  0.00    +0.012 A 
ATOM      8  C   UNL     1       1.285   0.979  -1.740  0.00  0.00    +0.046 A 
BRANCH   3   9
ATOM      9  O   UNL     1       3.415   1.513  -0.805  0.00  0.00    -0.491 OA
BRANCH   9  10
ATOM     10  C   UNL     1       4.318   1.092   0.209  0.00  0.00    +0.244 C 
BRANCH  10  11
ATOM     11  C   UNL     1       5.673   0.821  -0.425  0.00  0.00    +0.124 C 
BRANCH  11  12
ATOM     12  N   UNL     1       6.641   0.401   0.587  0.00  0.00    -0.305 NA
ATOM     13  C   UNL     1       6.776   1.425   1.623  0.00  0.00    +0.104 C 
ATOM     14  C   UNL     1       7.938   0.125  -0.030  0.00  0.00    +0.104 C 
ENDBRANCH  11  12
ENDBRANCH  10  11
ENDBRANCH   9  10
ENDBRANCH   3   9
ENDBRANCH   1   6
BRANCH   1  15
ATOM     15  C   UNL     1      -3.028   1.265  -0.004  0.00  0.00    -0.017 A 
ATOM     16  C   UNL     1      -3.334   1.780   1.231  0.00  0.00    +0.008 A 
ATOM     17  C   UNL     1      -4.304   2.780   1.310  0.00  0.00    +0.001 A 
ATOM     18  C   UNL     1      -4.936   3.231   0.151  0.00  0.00    +0.000 A 
ATOM     19  C   UNL     1      -4.598   2.683  -1.086  0.00  0.00    +0.001 A 
ATOM     20  C   UNL     1      -3.628   1.684  -1.165  0.00  0.00    +0.008 A 
ENDBRANCH   1  15
BRANCH   2  21
ATOM     21  C   UNL     1      -1.416  -2.252  -0.064  0.00  0.00    -0.021 A 
ATOM     22  C   UNL     1      -1.128  -2.805  -1.296  0.00  0.00    +0.008 A 
ATOM     23  C   UNL     1      -0.224  -3.865  -1.365  0.00  0.00    +0.001 A 
ATOM     24  C   UNL     1       0.372  -4.349  -0.200  0.00  0.00    +0.000 A 
ATOM     25  C   UNL     1       0.065  -3.774   1.032  0.00  0.00    +0.001 A 
ATOM     26  C   UNL     1      -0.839  -2.713   1.101  0.00  0.00    +0.008 A 
ENDBRANCH   2  21
BRANCH   2  27
ATOM     27  C   UNL     1      -3.811  -1.573   0.255  0.00  0.00    +0.033 C 
ATOM     28  C   UNL     1      -4.138  -1.711   1.737  0.00  0.00    +0.009 C 
ENDBRANCH   2  27
TORSDOF 8
