MODEL 1
REMARK VINA RESULT:   -12.152      0.000      0.000
REMARK INTER + INTRA:          -9.832
REMARK INTER:                  -9.856
REMARK INTRA:                   0.024
REMARK UNBOUND:                 4.806
REMARK  Name = 301
REMARK  5 active torsions:
REMARK  status: ('A' for Active; 'I' for Inactive)
REMARK    1  A    between atoms: C_3  and  O_4
REMARK    2  A    between atoms: C_5  and  C_17
REMARK    3  A    between atoms: C_15  and  C_20
REMARK    4  A    between atoms: C_15  and  C_23
REMARK    5  A    between atoms: C_16  and  C_17
REMARK                            x       y       z     vdW  Elec       q    Type
REMARK                         _______ _______ _______ _____ _____    ______ ____
ROOT
ATOM      1  C   UNL     1      27.754  -1.743  27.667  0.00  0.00    -0.024 A 
ATOM      2  C   UNL     1      26.382  -1.699  27.410  0.00  0.00    +0.000 A 
ATOM      3  C   UNL     1      25.746  -0.476  27.190  0.00  0.00    +0.074 A 
ATOM      4  C   UNL     1      26.496   0.702  27.273  0.00  0.00    +0.008 A 
ATOM      5  C   UNL     1      27.870   0.658  27.542  0.00  0.00    -0.049 A 
ATOM      6  C   UNL     1      28.600   1.995  27.719  0.00  0.00    +0.058 C 
ATOM      7  C   UNL     1      30.018   1.799  28.307  0.00  0.00    +0.018 C 
ATOM      8  C   UNL     1      30.749   0.703  27.491  0.00  0.00    +0.003 C 
ATOM      9  C   UNL     1      32.302   0.672  27.689  0.00  0.00    +0.012 C 
ATOM     10  C   UNL     1      32.951  -0.407  26.754  0.00  0.00    +0.024 C 
ATOM     11  C   UNL     1      32.900  -0.022  25.240  0.00  0.00    -0.014 C 
ATOM     12  C   UNL     1      32.241  -1.778  26.983  0.00  0.00    -0.011 C 
ATOM     13  C   UNL     1      30.696  -1.727  26.821  0.00  0.00    +0.010 C 
ATOM     14  C   UNL     1      30.068  -0.667  27.769  0.00  0.00    +0.030 C 
ATOM     15  C   UNL     1      28.531  -0.575  27.651  0.00  0.00    -0.048 A 
ENDROOT
BRANCH  10  16
ATOM     16  C   UNL     1      34.433  -0.559  27.071  0.00  0.00    +0.109 C 
ATOM     17  N   UNL     1      35.311   0.348  26.784  0.00  0.00    -0.296 N 
ATOM     18  H   UNL     1      35.101   1.244  26.320  0.00  0.00    +0.187 HD
ATOM     19  C   UNL     1      36.640  -0.041  27.198  0.00  0.00    +0.156 C 
ATOM     20  C   UNL     1      36.301  -1.434  27.815  0.00  0.00    +0.150 C 
ATOM     21  N   UNL     1      34.871  -1.600  27.646  0.00  0.00    -0.273 NA
ENDBRANCH  10  16
BRANCH   3  22
ATOM     22  O   UNL     1      24.379  -0.457  26.900  0.00  0.00    -0.339 OA
ATOM     23  H   UNL     1      24.096  -1.137  26.298  0.00  0.00    +0.246 HD
ENDBRANCH   3  22
BRANCH   9  24
ATOM     24  C   UNL     1      32.746   0.510  29.180  0.00  0.00    +0.183 C 
BRANCH  24  25
ATOM     25  C   UNL     1      33.940   1.284  29.495  0.00  0.00    +0.089 C 
ATOM     26  N   UNL     1      34.890   1.898  29.744  0.00  0.00    -0.304 NA
ENDBRANCH  24  25
ENDBRANCH   9  24
TORSDOF 4
ENDMDL
MODEL 2
REMARK VINA RESULT:   -11.836      1.270      3.284
REMARK INTER + INTRA:          -9.452
REMARK INTER:                  -9.517
REMARK INTRA:                   0.065
REMARK UNBOUND:                 4.806
REMARK  Name = 301
REMARK  5 active torsions:
REMARK  status: ('A' for Active; 'I' for Inactive)
REMARK    1  A    between atoms: C_3  and  O_4
REMARK    2  A    between atoms: C_5  and  C_17
REMARK    3  A    between atoms: C_15  and  C_20
REMARK    4  A    between atoms: C_15  and  C_23
REMARK    5  A    between atoms: C_16  and  C_17
REMARK                            x       y       z     vdW  Elec       q    Type
REMARK                         _______ _______ _______ _____ _____    ______ ____
ROOT
ATOM      1  C   UNL     1      27.659   0.377  26.683  0.00  0.00    -0.024 A 
ATOM      2  C   UNL     1      26.285   0.350  26.931  0.00  0.00    +0.000 A 
ATOM      3  C   UNL     1      25.694  -0.781  27.495  0.00  0.00    +0.074 A 
ATOM      4  C   UNL     1      26.491  -1.898  27.766  0.00  0.00    +0.008 A 
ATOM      5  C   UNL     1      27.867  -1.875  27.507  0.00  0.00    -0.049 A 
ATOM      6  C   UNL     1      28.652  -3.172  27.735  0.00  0.00    +0.058 C 
ATOM      7  C   UNL     1      30.074  -3.095  27.128  0.00  0.00    +0.018 C 
ATOM      8  C   UNL     1      30.744  -1.778  27.592  0.00  0.00    +0.003 C 
ATOM      9  C   UNL     1      32.298  -1.738  27.406  0.00  0.00    +0.012 C 
ATOM     10  C   UNL     1      32.885  -0.406  27.989  0.00  0.00    +0.024 C 
ATOM     11  C   UNL     1      32.818  -0.332  29.549  0.00  0.00    -0.014 C 
ATOM     12  C   UNL     1      32.127   0.807  27.363  0.00  0.00    -0.011 C 
ATOM     13  C   UNL     1      30.581   0.738  27.520  0.00  0.00    +0.010 C 
ATOM     14  C   UNL     1      30.016  -0.579  26.920  0.00  0.00    +0.030 C 
ATOM     15  C   UNL     1      28.481  -0.700  27.047  0.00  0.00    -0.048 A 
ENDROOT
BRANCH  10  16
ATOM     16  C   UNL     1      34.366  -0.288  27.653  0.00  0.00    +0.109 C 
ATOM     17  N   UNL     1      35.213  -1.244  27.863  0.00  0.00    -0.296 N 
ATOM     18  H   UNL     1      34.977  -2.160  28.272  0.00  0.00    +0.187 HD
ATOM     19  C   UNL     1      36.549  -0.879  27.449  0.00  0.00    +0.156 C 
ATOM     20  C   UNL     1      36.253   0.563  26.931  0.00  0.00    +0.150 C 
ATOM     21  N   UNL     1      34.834   0.771  27.138  0.00  0.00    -0.273 NA
ENDBRANCH  10  16
BRANCH   3  22
ATOM     22  O   UNL     1      24.322  -0.774  27.767  0.00  0.00    -0.339 OA
ATOM     23  H   UNL     1      24.054  -1.384  28.445  0.00  0.00    +0.246 HD
ENDBRANCH   3  22
BRANCH   9  24
ATOM     24  C   UNL     1      32.766  -2.000  25.936  0.00  0.00    +0.183 C 
BRANCH  24  25
ATOM     25  C   UNL     1      32.825  -3.420  25.614  0.00  0.00    +0.089 C 
ATOM     26  N   UNL     1      32.871  -4.549  25.359  0.00  0.00    -0.304 NA
ENDBRANCH  24  25
ENDBRANCH   9  24
TORSDOF 4
ENDMDL
MODEL 3
REMARK VINA RESULT:   -10.661      9.032     11.220
REMARK INTER + INTRA:          -8.036
REMARK INTER:                  -8.145
REMARK INTRA:                   0.109
REMARK UNBOUND:                 4.806
REMARK  Name = 301
REMARK  5 active torsions:
REMARK  status: ('A' for Active; 'I' for Inactive)
REMARK    1  A    between atoms: C_3  and  O_4
REMARK    2  A    between atoms: C_5  and  C_17
REMARK    3  A    between atoms: C_15  and  C_20
REMARK    4  A    between atoms: C_15  and  C_23
REMARK    5  A    between atoms: C_16  and  C_17
REMARK                            x       y       z     vdW  Elec       q    Type
REMARK                         _______ _______ _______ _____ _____    ______ ____
ROOT
ATOM      1  C   UNL     1      33.834  -3.447  20.813  0.00  0.00    -0.024 A 
ATOM      2  C   UNL     1      33.023  -4.371  21.476  0.00  0.00    +0.000 A 
ATOM      3  C   UNL     1      31.786  -4.733  20.942  0.00  0.00    +0.074 A 
ATOM      4  C   UNL     1      31.356  -4.126  19.757  0.00  0.00    +0.008 A 
ATOM      5  C   UNL     1      32.164  -3.192  19.098  0.00  0.00    -0.049 A 
ATOM      6  C   UNL     1      31.580  -2.495  17.863  0.00  0.00    +0.058 C 
ATOM      7  C   UNL     1      32.442  -1.288  17.425  0.00  0.00    +0.018 C 
ATOM      8  C   UNL     1      33.923  -1.736  17.342  0.00  0.00    +0.003 C 
ATOM      9  C   UNL     1      34.852  -0.767  16.536  0.00  0.00    +0.012 C 
ATOM     10  C   UNL     1      36.302  -1.356  16.435  0.00  0.00    +0.024 C 
ATOM     11  C   UNL     1      36.393  -2.615  15.513  0.00  0.00    -0.014 C 
ATOM     12  C   UNL     1      36.815  -1.703  17.868  0.00  0.00    -0.011 C 
ATOM     13  C   UNL     1      35.866  -2.636  18.673  0.00  0.00    +0.010 C 
ATOM     14  C   UNL     1      34.441  -2.026  18.780  0.00  0.00    +0.030 C 
ATOM     15  C   UNL     1      33.455  -2.912  19.573  0.00  0.00    -0.048 A 
ENDROOT
BRANCH  10  16
ATOM     16  C   UNL     1      37.244  -0.339  15.806  0.00  0.00    +0.109 C 
ATOM     17  N   UNL     1      38.145   0.298  16.482  0.00  0.00    -0.296 N 
ATOM     18  H   UNL     1      38.310   0.187  17.493  0.00  0.00    +0.187 HD
ATOM     19  C   UNL     1      38.909   1.197  15.646  0.00  0.00    +0.156 C 
ATOM     20  C   UNL     1      38.208   0.908  14.281  0.00  0.00    +0.150 C 
ATOM     21  N   UNL     1      37.185  -0.077  14.567  0.00  0.00    -0.273 NA
ENDBRANCH  10  16
BRANCH   3  22
ATOM     22  O   UNL     1      31.006  -5.686  21.604  0.00  0.00    -0.339 OA
ATOM     23  H   UNL     1      30.865  -6.488  21.113  0.00  0.00    +0.246 HD
ENDBRANCH   3  22
BRANCH   9  24
ATOM     24  C   UNL     1      34.845   0.704  17.068  0.00  0.00    +0.183 C 
BRANCH  24  25
ATOM     25  C   UNL     1      34.887   1.687  15.993  0.00  0.00    +0.089 C 
ATOM     26  N   UNL     1      34.919   2.470  15.140  0.00  0.00    -0.304 NA
ENDBRANCH  24  25
ENDBRANCH   9  24
TORSDOF 4
ENDMDL
MODEL 4
REMARK VINA RESULT:    -9.749      3.753      6.051
REMARK INTER + INTRA:          -6.938
REMARK INTER:                  -6.715
REMARK INTRA:                  -0.223
REMARK UNBOUND:                 4.806
REMARK  Name = 301
REMARK  5 active torsions:
REMARK  status: ('A' for Active; 'I' for Inactive)
REMARK    1  A    between atoms: C_3  and  O_4
REMARK    2  A    between atoms: C_5  and  C_17
REMARK    3  A    between atoms: C_15  and  C_20
REMARK    4  A    between atoms: C_15  and  C_23
REMARK    5  A    between atoms: C_16  and  C_17
REMARK                            x       y       z     vdW  Elec       q    Type
REMARK                         _______ _______ _______ _____ _____    ______ ____
ROOT
ATOM      1  C   UNL     1      31.807  -2.161  22.248  0.00  0.00    -0.024 A 
ATOM      2  C   UNL     1      31.803  -3.083  21.199  0.00  0.00    +0.000 A 
ATOM      3  C   UNL     1      32.218  -4.397  21.417  0.00  0.00    +0.074 A 
ATOM      4  C   UNL     1      32.673  -4.762  22.688  0.00  0.00    +0.008 A 
ATOM      5  C   UNL     1      32.686  -3.835  23.737  0.00  0.00    -0.049 A 
ATOM      6  C   UNL     1      33.295  -4.283  25.071  0.00  0.00    +0.058 C 
ATOM      7  C   UNL     1      33.522  -3.087  26.027  0.00  0.00    +0.018 C 
ATOM      8  C   UNL     1      32.221  -2.249  26.096  0.00  0.00    +0.003 C 
ATOM      9  C   UNL     1      32.149  -1.259  27.306  0.00  0.00    +0.012 C 
ATOM     10  C   UNL     1      30.760  -0.530  27.335  0.00  0.00    +0.024 C 
ATOM     11  C   UNL     1      29.575  -1.477  27.715  0.00  0.00    -0.014 C 
ATOM     12  C   UNL     1      30.496   0.126  25.944  0.00  0.00    -0.011 C 
ATOM     13  C   UNL     1      30.608  -0.859  24.746  0.00  0.00    +0.010 C 
ATOM     14  C   UNL     1      31.997  -1.555  24.722  0.00  0.00    +0.030 C 
ATOM     15  C   UNL     1      32.164  -2.546  23.548  0.00  0.00    -0.048 A 
ENDROOT
BRANCH  10  16
ATOM     16  C   UNL     1      30.753   0.555  28.403  0.00  0.00    +0.109 C 
ATOM     17  N   UNL     1      31.099   0.337  29.631  0.00  0.00    -0.296 N 
ATOM     18  H   UNL     1      31.404  -0.575  30.003  0.00  0.00    +0.187 HD
ATOM     19  C   UNL     1      31.012   1.534  30.435  0.00  0.00    +0.156 C 
ATOM     20  C   UNL     1      30.520   2.526  29.335  0.00  0.00    +0.150 C 
ATOM     21  N   UNL     1      30.408   1.742  28.122  0.00  0.00    -0.273 NA
ENDBRANCH  10  16
BRANCH   3  22
ATOM     22  O   UNL     1      32.174  -5.313  20.361  0.00  0.00    -0.339 OA
ATOM     23  H   UNL     1      32.646  -5.037  19.583  0.00  0.00    +0.246 HD
ENDBRANCH   3  22
BRANCH   9  24
ATOM     24  C   UNL     1      33.346  -0.255  27.374  0.00  0.00    +0.183 C 
BRANCH  24  25
ATOM     25  C   UNL     1      34.311  -0.606  28.409  0.00  0.00    +0.089 C 
ATOM     26  N   UNL     1      35.078  -0.885  29.230  0.00  0.00    -0.304 NA
ENDBRANCH  24  25
ENDBRANCH   9  24
TORSDOF 4
ENDMDL
MODEL 5
REMARK VINA RESULT:    -9.649      8.396     10.534
REMARK INTER + INTRA:          -6.817
REMARK INTER:                  -7.914
REMARK INTRA:                   1.097
REMARK UNBOUND:                 4.806
REMARK  Name = 301
REMARK  5 active torsions:
REMARK  status: ('A' for Active; 'I' for Inactive)
REMARK    1  A    between atoms: C_3  and  O_4
REMARK    2  A    between atoms: C_5  and  C_17
REMARK    3  A    between atoms: C_15  and  C_20
REMARK    4  A    between atoms: C_15  and  C_23
REMARK    5  A    between atoms: C_16  and  C_17
REMARK                            x       y       z     vdW  Elec       q    Type
REMARK                         _______ _______ _______ _____ _____    ______ ____
ROOT
ATOM      1  C   UNL     1      32.169  -3.516  17.772  0.00  0.00    -0.024 A 
ATOM      2  C   UNL     1      30.943  -3.998  18.233  0.00  0.00    +0.000 A 
ATOM      3  C   UNL     1      30.575  -3.823  19.568  0.00  0.00    +0.074 A 
ATOM      4  C   UNL     1      31.470  -3.195  20.440  0.00  0.00    +0.008 A 
ATOM      5  C   UNL     1      32.704  -2.721  19.980  0.00  0.00    -0.049 A 
ATOM      6  C   UNL     1      33.671  -2.137  21.017  0.00  0.00    +0.058 C 
ATOM      7  C   UNL     1      35.089  -1.939  20.431  0.00  0.00    +0.018 C 
ATOM      8  C   UNL     1      34.971  -1.188  19.081  0.00  0.00    +0.003 C 
ATOM      9  C   UNL     1      36.310  -0.560  18.567  0.00  0.00    +0.012 C 
ATOM     10  C   UNL     1      36.063   0.252  17.248  0.00  0.00    +0.024 C 
ATOM     11  C   UNL     1      35.243   1.563  17.475  0.00  0.00    -0.014 C 
ATOM     12  C   UNL     1      35.335  -0.662  16.212  0.00  0.00    -0.011 C 
ATOM     13  C   UNL     1      34.027  -1.310  16.746  0.00  0.00    +0.010 C 
ATOM     14  C   UNL     1      34.295  -2.126  18.041  0.00  0.00    +0.030 C 
ATOM     15  C   UNL     1      33.027  -2.795  18.616  0.00  0.00    -0.048 A 
ENDROOT
BRANCH  10  16
ATOM     16  C   UNL     1      37.387   0.714  16.655  0.00  0.00    +0.109 C 
ATOM     17  N   UNL     1      38.523   0.178  16.966  0.00  0.00    -0.296 N 
ATOM     18  H   UNL     1      38.644  -0.597  17.635  0.00  0.00    +0.187 HD
ATOM     19  C   UNL     1      39.621   0.795  16.257  0.00  0.00    +0.156 C 
ATOM     20  C   UNL     1      38.813   1.848  15.434  0.00  0.00    +0.150 C 
ATOM     21  N   UNL     1      37.426   1.658  15.810  0.00  0.00    -0.273 NA
ENDBRANCH  10  16
BRANCH   3  22
ATOM     22  O   UNL     1      29.328  -4.283  20.001  0.00  0.00    -0.339 OA
ATOM     23  H   UNL     1      29.164  -5.202  19.819  0.00  0.00    +0.246 HD
ENDBRANCH   3  22
BRANCH   9  24
ATOM     24  C   UNL     1      37.476  -1.592  18.419  0.00  0.00    +0.183 C 
BRANCH  24  25
ATOM     25  C   UNL     1      38.204  -1.796  19.665  0.00  0.00    +0.089 C 
ATOM     26  N   UNL     1      38.783  -1.958  20.654  0.00  0.00    -0.304 NA
ENDBRANCH  24  25
ENDBRANCH   9  24
TORSDOF 4
ENDMDL
MODEL 6
REMARK VINA RESULT:    -9.468      4.090      7.471
REMARK INTER + INTRA:          -6.598
REMARK INTER:                  -6.532
REMARK INTRA:                  -0.067
REMARK UNBOUND:                 4.806
REMARK  Name = 301
REMARK  5 active torsions:
REMARK  status: ('A' for Active; 'I' for Inactive)
REMARK    1  A    between atoms: C_3  and  O_4
REMARK    2  A    between atoms: C_5  and  C_17
REMARK    3  A    between atoms: C_15  and  C_20
REMARK    4  A    between atoms: C_15  and  C_23
REMARK    5  A    between atoms: C_16  and  C_17
REMARK                            x       y       z     vdW  Elec       q    Type
REMARK                         _______ _______ _______ _____ _____    ______ ____
ROOT
ATOM      1  C   UNL     1      34.757   0.132  27.936  0.00  0.00    -0.024 A 
ATOM      2  C   UNL     1      36.143   0.100  27.766  0.00  0.00    +0.000 A 
ATOM      3  C   UNL     1      36.743  -0.956  27.079  0.00  0.00    +0.074 A 
ATOM      4  C   UNL     1      35.940  -1.997  26.602  0.00  0.00    +0.008 A 
ATOM      5  C   UNL     1      34.552  -1.970  26.782  0.00  0.00    -0.049 A 
ATOM      6  C   UNL     1      33.753  -3.196  26.322  0.00  0.00    +0.058 C 
ATOM      7  C   UNL     1      32.299  -3.163  26.851  0.00  0.00    +0.018 C 
ATOM      8  C   UNL     1      31.688  -1.773  26.545  0.00  0.00    +0.003 C 
ATOM      9  C   UNL     1      30.127  -1.713  26.645  0.00  0.00    +0.012 C 
ATOM     10  C   UNL     1      29.606  -0.293  26.230  0.00  0.00    +0.024 C 
ATOM     11  C   UNL     1      29.771   0.002  24.703  0.00  0.00    -0.014 C 
ATOM     12  C   UNL     1      30.351   0.792  27.069  0.00  0.00    -0.011 C 
ATOM     13  C   UNL     1      31.901   0.700  26.992  0.00  0.00    +0.010 C 
ATOM     14  C   UNL     1      32.399  -0.707  27.426  0.00  0.00    +0.030 C 
ATOM     15  C   UNL     1      33.936  -0.855  27.372  0.00  0.00    -0.048 A 
ENDROOT
BRANCH  10  16
ATOM     16  C   UNL     1      28.110  -0.180  26.492  0.00  0.00    +0.109 C 
ATOM     17  N   UNL     1      27.255  -1.062  26.085  0.00  0.00    -0.296 N 
ATOM     18  H   UNL     1      27.495  -1.911  25.550  0.00  0.00    +0.187 HD
ATOM     19  C   UNL     1      25.905  -0.722  26.472  0.00  0.00    +0.156 C 
ATOM     20  C   UNL     1      26.202   0.611  27.229  0.00  0.00    +0.150 C 
ATOM     21  N   UNL     1      27.636   0.801  27.140  0.00  0.00    -0.273 NA
ENDBRANCH  10  16
BRANCH   3  22
ATOM     22  O   UNL     1      38.129  -0.952  26.891  0.00  0.00    -0.339 OA
ATOM     23  H   UNL     1      38.403  -0.753  26.003  0.00  0.00    +0.246 HD
ENDBRANCH   3  22
BRANCH   9  24
ATOM     24  C   UNL     1      29.563  -2.169  28.031  0.00  0.00    +0.183 C 
BRANCH  24  25
ATOM     25  C   UNL     1      28.690  -3.331  27.924  0.00  0.00    +0.089 C 
ATOM     26  N   UNL     1      27.998  -4.256  27.839  0.00  0.00    -0.304 NA
ENDBRANCH  24  25
ENDBRANCH   9  24
TORSDOF 4
ENDMDL
MODEL 7
REMARK VINA RESULT:    -9.263      3.953      7.100
REMARK INTER + INTRA:          -6.352
REMARK INTER:                  -6.121
REMARK INTRA:                  -0.230
REMARK UNBOUND:                 4.806
REMARK  Name = 301
REMARK  5 active torsions:
REMARK  status: ('A' for Active; 'I' for Inactive)
REMARK    1  A    between atoms: C_3  and  O_4
REMARK    2  A    between atoms: C_5  and  C_17
REMARK    3  A    between atoms: C_15  and  C_20
REMARK    4  A    between atoms: C_15  and  C_23
REMARK    5  A    between atoms: C_16  and  C_17
REMARK                            x       y       z     vdW  Elec       q    Type
REMARK                         _______ _______ _______ _____ _____    ______ ____
ROOT
ATOM      1  C   UNL     1      34.797  -1.417  26.342  0.00  0.00    -0.024 A 
ATOM      2  C   UNL     1      36.144  -1.695  26.586  0.00  0.00    +0.000 A 
ATOM      3  C   UNL     1      36.711  -1.394  27.825  0.00  0.00    +0.074 A 
ATOM      4  C   UNL     1      35.921  -0.773  28.798  0.00  0.00    +0.008 A 
ATOM      5  C   UNL     1      34.574  -0.484  28.549  0.00  0.00    -0.049 A 
ATOM      6  C   UNL     1      33.804   0.289  29.627  0.00  0.00    +0.058 C 
ATOM      7  C   UNL     1      32.441   0.801  29.101  0.00  0.00    +0.018 C 
ATOM      8  C   UNL     1      31.699  -0.373  28.414  0.00  0.00    +0.003 C 
ATOM      9  C   UNL     1      30.167  -0.134  28.194  0.00  0.00    +0.012 C 
ATOM     10  C   UNL     1      29.497  -1.412  27.580  0.00  0.00    +0.024 C 
ATOM     11  C   UNL     1      29.422  -2.611  28.581  0.00  0.00    -0.014 C 
ATOM     12  C   UNL     1      30.277  -1.834  26.296  0.00  0.00    -0.011 C 
ATOM     13  C   UNL     1      31.804  -2.032  26.518  0.00  0.00    +0.010 C 
ATOM     14  C   UNL     1      32.454  -0.749  27.108  0.00  0.00    +0.030 C 
ATOM     15  C   UNL     1      33.974  -0.889  27.347  0.00  0.00    -0.048 A 
ENDROOT
BRANCH  10  16
ATOM     16  C   UNL     1      28.049  -1.122  27.205  0.00  0.00    +0.109 C 
ATOM     17  N   UNL     1      27.106  -1.003  28.083  0.00  0.00    -0.296 N 
ATOM     18  H   UNL     1      27.235  -1.094  29.102  0.00  0.00    +0.187 HD
ATOM     19  C   UNL     1      25.830  -0.721  27.465  0.00  0.00    +0.156 C 
ATOM     20  C   UNL     1      26.285  -0.702  25.972  0.00  0.00    +0.150 C 
ATOM     21  N   UNL     1      27.708  -0.977  25.993  0.00  0.00    -0.273 NA
ENDBRANCH  10  16
BRANCH   3  22
ATOM     22  O   UNL     1      38.052  -1.712  28.061  0.00  0.00    -0.339 OA
ATOM     23  H   UNL     1      38.212  -2.634  28.228  0.00  0.00    +0.246 HD
ENDBRANCH   3  22
BRANCH   9  24
ATOM     24  C   UNL     1      29.840   1.159  27.377  0.00  0.00    +0.183 C 
BRANCH  24  25
ATOM     25  C   UNL     1      28.898   2.031  28.066  0.00  0.00    +0.089 C 
ATOM     26  N   UNL     1      28.150   2.724  28.615  0.00  0.00    -0.304 NA
ENDBRANCH  24  25
ENDBRANCH   9  24
TORSDOF 4
ENDMDL
MODEL 8
REMARK VINA RESULT:    -9.119      4.677      7.164
REMARK INTER + INTRA:          -6.178
REMARK INTER:                  -6.013
REMARK INTRA:                  -0.165
REMARK UNBOUND:                 4.806
REMARK  Name = 301
REMARK  5 active torsions:
REMARK  status: ('A' for Active; 'I' for Inactive)
REMARK    1  A    between atoms: C_3  and  O_4
REMARK    2  A    between atoms: C_5  and  C_17
REMARK    3  A    between atoms: C_15  and  C_20
REMARK    4  A    between atoms: C_15  and  C_23
REMARK    5  A    between atoms: C_16  and  C_17
REMARK                            x       y       z     vdW  Elec       q    Type
REMARK                         _______ _______ _______ _____ _____    ______ ____
ROOT
ATOM      1  C   UNL     1      33.637  -1.890  20.593  0.00  0.00    -0.024 A 
ATOM      2  C   UNL     1      33.568  -2.272  19.252  0.00  0.00    +0.000 A 
ATOM      3  C   UNL     1      32.916  -3.451  18.888  0.00  0.00    +0.074 A 
ATOM      4  C   UNL     1      32.372  -4.260  19.890  0.00  0.00    +0.008 A 
ATOM      5  C   UNL     1      32.450  -3.883  21.236  0.00  0.00    -0.049 A 
ATOM      6  C   UNL     1      31.921  -4.872  22.282  0.00  0.00    +0.058 C 
ATOM      7  C   UNL     1      32.344  -4.471  23.715  0.00  0.00    +0.018 C 
ATOM      8  C   UNL     1      32.008  -2.974  23.933  0.00  0.00    +0.003 C 
ATOM      9  C   UNL     1      31.995  -2.522  25.432  0.00  0.00    +0.012 C 
ATOM     10  C   UNL     1      31.557  -1.021  25.548  0.00  0.00    +0.024 C 
ATOM     11  C   UNL     1      30.050  -0.790  25.203  0.00  0.00    -0.014 C 
ATOM     12  C   UNL     1      32.458  -0.150  24.617  0.00  0.00    -0.011 C 
ATOM     13  C   UNL     1      32.494  -0.631  23.138  0.00  0.00    +0.010 C 
ATOM     14  C   UNL     1      32.949  -2.114  23.043  0.00  0.00    +0.030 C 
ATOM     15  C   UNL     1      33.005  -2.644  21.593  0.00  0.00    -0.048 A 
ENDROOT
BRANCH  10  16
ATOM     16  C   UNL     1      31.712  -0.533  26.982  0.00  0.00    +0.109 C 
ATOM     17  N   UNL     1      31.027  -1.016  27.968  0.00  0.00    -0.296 N 
ATOM     18  H   UNL     1      30.320  -1.763  27.883  0.00  0.00    +0.187 HD
ATOM     19  C   UNL     1      31.371  -0.386  29.222  0.00  0.00    +0.156 C 
ATOM     20  C   UNL     1      32.457   0.606  28.701  0.00  0.00    +0.150 C 
ATOM     21  N   UNL     1      32.541   0.381  27.272  0.00  0.00    -0.273 NA
ENDBRANCH  10  16
BRANCH   3  22
ATOM     22  O   UNL     1      32.828  -3.797  17.536  0.00  0.00    -0.339 OA
ATOM     23  H   UNL     1      31.995  -4.177  17.282  0.00  0.00    +0.246 HD
ENDBRANCH   3  22
BRANCH   9  24
ATOM     24  C   UNL     1      33.332  -2.810  26.191  0.00  0.00    +0.183 C 
BRANCH  24  25
ATOM     25  C   UNL     1      33.336  -4.115  26.841  0.00  0.00    +0.089 C 
ATOM     26  N   UNL     1      33.340  -5.152  27.356  0.00  0.00    -0.304 NA
ENDBRANCH  24  25
ENDBRANCH   9  24
TORSDOF 4
ENDMDL
MODEL 9
REMARK VINA RESULT:    -8.844      9.463     11.741
REMARK INTER + INTRA:          -5.847
REMARK INTER:                  -7.129
REMARK INTRA:                   1.281
REMARK UNBOUND:                 4.806
REMARK  Name = 301
REMARK  5 active torsions:
REMARK  status: ('A' for Active; 'I' for Inactive)
REMARK    1  A    between atoms: C_3  and  O_4
REMARK    2  A    between atoms: C_5  and  C_17
REMARK    3  A    between atoms: C_15  and  C_20
REMARK    4  A    between atoms: C_15  and  C_23
REMARK    5  A    between atoms: C_16  and  C_17
REMARK                            x       y       z     vdW  Elec       q    Type
REMARK                         _______ _______ _______ _____ _____    ______ ____
ROOT
ATOM      1  C   UNL     1      33.113  -2.894  18.310  0.00  0.00    -0.024 A 
ATOM      2  C   UNL     1      32.504  -3.758  19.222  0.00  0.00    +0.000 A 
ATOM      3  C   UNL     1      33.087  -3.989  20.469  0.00  0.00    +0.074 A 
ATOM      4  C   UNL     1      34.306  -3.375  20.771  0.00  0.00    +0.008 A 
ATOM      5  C   UNL     1      34.922  -2.517  19.851  0.00  0.00    -0.049 A 
ATOM      6  C   UNL     1      36.306  -1.964  20.215  0.00  0.00    +0.058 C 
ATOM      7  C   UNL     1      36.991  -1.293  19.000  0.00  0.00    +0.018 C 
ATOM      8  C   UNL     1      35.991  -0.306  18.346  0.00  0.00    +0.003 C 
ATOM      9  C   UNL     1      36.645   0.734  17.376  0.00  0.00    +0.012 C 
ATOM     10  C   UNL     1      35.565   1.739  16.842  0.00  0.00    +0.024 C 
ATOM     11  C   UNL     1      35.037   2.718  17.941  0.00  0.00    -0.014 C 
ATOM     12  C   UNL     1      34.378   0.935  16.225  0.00  0.00    -0.011 C 
ATOM     13  C   UNL     1      33.761  -0.122  17.185  0.00  0.00    +0.010 C 
ATOM     14  C   UNL     1      34.841  -1.120  17.687  0.00  0.00    +0.030 C 
ATOM     15  C   UNL     1      34.282  -2.195  18.645  0.00  0.00    -0.048 A 
ENDROOT
BRANCH  10  16
ATOM     16  C   UNL     1      36.163   2.638  15.769  0.00  0.00    +0.109 C 
ATOM     17  N   UNL     1      37.360   2.477  15.302  0.00  0.00    -0.296 N 
ATOM     18  H   UNL     1      38.016   1.742  15.605  0.00  0.00    +0.187 HD
ATOM     19  C   UNL     1      37.678   3.458  14.288  0.00  0.00    +0.156 C 
ATOM     20  C   UNL     1      36.329   4.243  14.284  0.00  0.00    +0.150 C 
ATOM     21  N   UNL     1      35.495   3.596  15.276  0.00  0.00    -0.273 NA
ENDBRANCH  10  16
BRANCH   3  22
ATOM     22  O   UNL     1      32.443  -4.831  21.381  0.00  0.00    -0.339 OA
ATOM     23  H   UNL     1      33.027  -5.403  21.867  0.00  0.00    +0.246 HD
ENDBRANCH   3  22
BRANCH   9  24
ATOM     24  C   UNL     1      37.476   0.086  16.220  0.00  0.00    +0.183 C 
BRANCH  24  25
ATOM     25  C   UNL     1      38.890   0.430  16.288  0.00  0.00    +0.089 C 
ATOM     26  N   UNL     1      40.014   0.705  16.341  0.00  0.00    -0.304 NA
ENDBRANCH  24  25
ENDBRANCH   9  24
TORSDOF 4
ENDMDL
MODEL 10
REMARK VINA RESULT:    -8.497      3.976      7.503
REMARK INTER + INTRA:          -5.430
REMARK INTER:                  -5.446
REMARK INTRA:                   0.017
REMARK UNBOUND:                 4.806
REMARK  Name = 301
REMARK  5 active torsions:
REMARK  status: ('A' for Active; 'I' for Inactive)
REMARK    1  A    between atoms: C_3  and  O_4
REMARK    2  A    between atoms: C_5  and  C_17
REMARK    3  A    between atoms: C_15  and  C_20
REMARK    4  A    between atoms: C_15  and  C_23
REMARK    5  A    between atoms: C_16  and  C_17
REMARK                            x       y       z     vdW  Elec       q    Type
REMARK                         _______ _______ _______ _____ _____    ______ ____
ROOT
ATOM      1  C   UNL     1      36.918  -1.578  26.265  0.00  0.00    -0.024 A 
ATOM      2  C   UNL     1      38.206  -2.091  26.437  0.00  0.00    +0.000 A 
ATOM      3  C   UNL     1      38.730  -2.259  27.719  0.00  0.00    +0.074 A 
ATOM      4  C   UNL     1      37.963  -1.869  28.821  0.00  0.00    +0.008 A 
ATOM      5  C   UNL     1      36.676  -1.345  28.648  0.00  0.00    -0.049 A 
ATOM      6  C   UNL     1      35.940  -0.846  29.897  0.00  0.00    +0.058 C 
ATOM      7  C   UNL     1      34.681  -0.025  29.530  0.00  0.00    +0.018 C 
ATOM      8  C   UNL     1      33.847  -0.826  28.498  0.00  0.00    +0.003 C 
ATOM      9  C   UNL     1      32.370  -0.334  28.333  0.00  0.00    +0.012 C 
ATOM     10  C   UNL     1      31.591  -1.264  27.339  0.00  0.00    +0.024 C 
ATOM     11  C   UNL     1      31.317  -2.691  27.915  0.00  0.00    -0.014 C 
ATOM     12  C   UNL     1      32.391  -1.370  26.003  0.00  0.00    -0.011 C 
ATOM     13  C   UNL     1      33.868  -1.823  26.182  0.00  0.00    +0.010 C 
ATOM     14  C   UNL     1      34.628  -0.879  27.154  0.00  0.00    +0.030 C 
ATOM     15  C   UNL     1      36.105  -1.281  27.368  0.00  0.00    -0.048 A 
ENDROOT
BRANCH  10  16
ATOM     16  C   UNL     1      30.212  -0.688  27.045  0.00  0.00    +0.109 C 
ATOM     17  N   UNL     1      29.237  -0.727  27.894  0.00  0.00    -0.296 N 
ATOM     18  H   UNL     1      29.293  -1.147  28.835  0.00  0.00    +0.187 HD
ATOM     19  C   UNL     1      28.042  -0.105  27.371  0.00  0.00    +0.156 C 
ATOM     20  C   UNL     1      28.587   0.319  25.971  0.00  0.00    +0.150 C 
ATOM     21  N   UNL     1      29.965  -0.129  25.934  0.00  0.00    -0.273 NA
ENDBRANCH  10  16
BRANCH   3  22
ATOM     22  O   UNL     1      40.008  -2.806  27.870  0.00  0.00    -0.339 OA
ATOM     23  H   UNL     1      40.031  -3.619  28.362  0.00  0.00    +0.246 HD
ENDBRANCH   3  22
BRANCH   9  24
ATOM     24  C   UNL     1      32.246   1.178  27.953  0.00  0.00    +0.183 C 
BRANCH  24  25
ATOM     25  C   UNL     1      31.116   1.828  28.606  0.00  0.00    +0.089 C 
ATOM     26  N   UNL     1      30.218   2.345  29.123  0.00  0.00    -0.304 NA
ENDBRANCH  24  25
ENDBRANCH   9  24
TORSDOF 4
ENDMDL
MODEL 11
REMARK VINA RESULT:    -8.374      3.890      7.141
REMARK INTER + INTRA:          -5.281
REMARK INTER:                  -6.828
REMARK INTRA:                   1.547
REMARK UNBOUND:                 4.806
REMARK  Name = 301
REMARK  5 active torsions:
REMARK  status: ('A' for Active; 'I' for Inactive)
REMARK    1  A    between atoms: C_3  and  O_4
REMARK    2  A    between atoms: C_5  and  C_17
REMARK    3  A    between atoms: C_15  and  C_20
REMARK    4  A    between atoms: C_15  and  C_23
REMARK    5  A    between atoms: C_16  and  C_17
REMARK                            x       y       z     vdW  Elec       q    Type
REMARK                         _______ _______ _______ _____ _____    ______ ____
ROOT
ATOM      1  C   UNL     1      34.724  -2.106  27.002  0.00  0.00    -0.024 A 
ATOM      2  C   UNL     1      36.110  -2.058  27.167  0.00  0.00    +0.000 A 
ATOM      3  C   UNL     1      36.786  -0.839  27.098  0.00  0.00    +0.074 A 
ATOM      4  C   UNL     1      36.059   0.323  26.820  0.00  0.00    +0.008 A 
ATOM      5  C   UNL     1      34.671   0.274  26.644  0.00  0.00    -0.049 A 
ATOM      6  C   UNL     1      33.961   1.572  26.241  0.00  0.00    +0.058 C 
ATOM      7  C   UNL     1      32.505   1.312  25.788  0.00  0.00    +0.018 C 
ATOM      8  C   UNL     1      31.802   0.428  26.849  0.00  0.00    +0.003 C 
ATOM      9  C   UNL     1      30.240   0.411  26.750  0.00  0.00    +0.012 C 
ATOM     10  C   UNL     1      29.626  -0.434  27.920  0.00  0.00    +0.024 C 
ATOM     11  C   UNL     1      29.781   0.246  29.319  0.00  0.00    -0.014 C 
ATOM     12  C   UNL     1      30.289  -1.847  27.934  0.00  0.00    -0.011 C 
ATOM     13  C   UNL     1      31.843  -1.818  27.994  0.00  0.00    +0.010 C 
ATOM     14  C   UNL     1      32.433  -0.993  26.817  0.00  0.00    +0.030 C 
ATOM     15  C   UNL     1      33.977  -0.932  26.826  0.00  0.00    -0.048 A 
ENDROOT
BRANCH  10  16
ATOM     16  C   UNL     1      28.124  -0.595  27.726  0.00  0.00    +0.109 C 
ATOM     17  N   UNL     1      27.373   0.340  27.239  0.00  0.00    -0.296 N 
ATOM     18  H   UNL     1      27.708   1.268  26.942  0.00  0.00    +0.187 HD
ATOM     19  C   UNL     1      25.990  -0.072  27.152  0.00  0.00    +0.156 C 
ATOM     20  C   UNL     1      26.135  -1.518  27.722  0.00  0.00    +0.150 C 
ATOM     21  N   UNL     1      27.541  -1.677  28.035  0.00  0.00    -0.273 NA
ENDBRANCH  10  16
BRANCH   3  22
ATOM     22  O   UNL     1      38.169  -0.810  27.300  0.00  0.00    -0.339 OA
ATOM     23  H   UNL     1      38.676  -0.625  26.517  0.00  0.00    +0.246 HD
ENDBRANCH   3  22
BRANCH   9  24
ATOM     24  C   UNL     1      29.699  -0.032  25.351  0.00  0.00    +0.183 C 
BRANCH  24  25
ATOM     25  C   UNL     1      30.635  -0.891  24.637  0.00  0.00    +0.089 C 
ATOM     26  N   UNL     1      31.378  -1.573  24.068  0.00  0.00    -0.304 NA
ENDBRANCH  24  25
ENDBRANCH   9  24
TORSDOF 4
ENDMDL
MODEL 12
REMARK VINA RESULT:    -8.149      4.025      7.292
REMARK INTER + INTRA:          -5.010
REMARK INTER:                  -6.414
REMARK INTRA:                   1.404
REMARK UNBOUND:                 4.806
REMARK  Name = 301
REMARK  5 active torsions:
REMARK  status: ('A' for Active; 'I' for Inactive)
REMARK    1  A    between atoms: C_3  and  O_4
REMARK    2  A    between atoms: C_5  and  C_17
REMARK    3  A    between atoms: C_15  and  C_20
REMARK    4  A    between atoms: C_15  and  C_23
REMARK    5  A    between atoms: C_16  and  C_17
REMARK                            x       y       z     vdW  Elec       q    Type
REMARK                         _______ _______ _______ _____ _____    ______ ____
ROOT
ATOM      1  C   UNL     1      33.501  -1.670  28.587  0.00  0.00    -0.024 A 
ATOM      2  C   UNL     1      34.885  -1.500  28.674  0.00  0.00    +0.000 A 
ATOM      3  C   UNL     1      35.597  -0.968  27.598  0.00  0.00    +0.074 A 
ATOM      4  C   UNL     1      34.910  -0.649  26.422  0.00  0.00    +0.008 A 
ATOM      5  C   UNL     1      33.524  -0.830  26.332  0.00  0.00    -0.049 A 
ATOM      6  C   UNL     1      32.861  -0.554  24.977  0.00  0.00    +0.058 C 
ATOM      7  C   UNL     1      31.406  -1.079  24.934  0.00  0.00    +0.018 C 
ATOM      8  C   UNL     1      30.658  -0.581  26.196  0.00  0.00    +0.003 C 
ATOM      9  C   UNL     1      29.098  -0.678  26.109  0.00  0.00    +0.012 C 
ATOM     10  C   UNL     1      28.438  -0.066  27.393  0.00  0.00    +0.024 C 
ATOM     11  C   UNL     1      28.588   1.488  27.483  0.00  0.00    -0.014 C 
ATOM     12  C   UNL     1      29.059  -0.737  28.659  0.00  0.00    -0.011 C 
ATOM     13  C   UNL     1      30.612  -0.668  28.716  0.00  0.00    +0.010 C 
ATOM     14  C   UNL     1      31.247  -1.297  27.445  0.00  0.00    +0.030 C 
ATOM     15  C   UNL     1      32.792  -1.256  27.450  0.00  0.00    -0.048 A 
ENDROOT
BRANCH  10  16
ATOM     16  C   UNL     1      26.936  -0.317  27.388  0.00  0.00    +0.109 C 
ATOM     17  N   UNL     1      26.144   0.177  26.492  0.00  0.00    -0.296 N 
ATOM     18  H   UNL     1      26.442   0.779  25.710  0.00  0.00    +0.187 HD
ATOM     19  C   UNL     1      24.771  -0.220  26.711  0.00  0.00    +0.156 C 
ATOM     20  C   UNL     1      24.975  -1.092  27.990  0.00  0.00    +0.150 C 
ATOM     21  N   UNL     1      26.395  -1.040  28.277  0.00  0.00    -0.273 NA
ENDBRANCH  10  16
BRANCH   3  22
ATOM     22  O   UNL     1      36.977  -0.775  27.718  0.00  0.00    -0.339 OA
ATOM     23  H   UNL     1      37.458  -1.545  27.999  0.00  0.00    +0.246 HD
ENDBRANCH   3  22
BRANCH   9  24
ATOM     24  C   UNL     1      28.571  -2.118  25.800  0.00  0.00    +0.183 C 
BRANCH  24  25
ATOM     25  C   UNL     1      28.637  -2.999  26.959  0.00  0.00    +0.089 C 
ATOM     26  N   UNL     1      28.689  -3.700  27.879  0.00  0.00    -0.304 NA
ENDBRANCH  24  25
ENDBRANCH   9  24
TORSDOF 4
ENDMDL
MODEL 13
REMARK VINA RESULT:    -8.127      9.434     12.005
REMARK INTER + INTRA:          -4.984
REMARK INTER:                  -5.542
REMARK INTRA:                   0.558
REMARK UNBOUND:                 4.806
REMARK  Name = 301
REMARK  5 active torsions:
REMARK  status: ('A' for Active; 'I' for Inactive)
REMARK    1  A    between atoms: C_3  and  O_4
REMARK    2  A    between atoms: C_5  and  C_17
REMARK    3  A    between atoms: C_15  and  C_20
REMARK    4  A    between atoms: C_15  and  C_23
REMARK    5  A    between atoms: C_16  and  C_17
REMARK                            x       y       z     vdW  Elec       q    Type
REMARK                         _______ _______ _______ _____ _____    ______ ____
ROOT
ATOM      1  C   UNL     1      34.826   2.491  16.616  0.00  0.00    -0.024 A 
ATOM      2  C   UNL     1      35.260   3.489  15.742  0.00  0.00    +0.000 A 
ATOM      3  C   UNL     1      36.521   3.406  15.149  0.00  0.00    +0.074 A 
ATOM      4  C   UNL     1      37.354   2.332  15.478  0.00  0.00    +0.008 A 
ATOM      5  C   UNL     1      36.922   1.336  16.363  0.00  0.00    -0.049 A 
ATOM      6  C   UNL     1      37.930   0.248  16.751  0.00  0.00    +0.058 C 
ATOM      7  C   UNL     1      37.431  -0.594  17.950  0.00  0.00    +0.018 C 
ATOM      8  C   UNL     1      35.978  -1.052  17.666  0.00  0.00    +0.003 C 
ATOM      9  C   UNL     1      35.478  -2.227  18.573  0.00  0.00    +0.012 C 
ATOM     10  C   UNL     1      34.037  -2.673  18.145  0.00  0.00    +0.024 C 
ATOM     11  C   UNL     1      34.001  -3.394  16.758  0.00  0.00    -0.014 C 
ATOM     12  C   UNL     1      33.098  -1.426  18.125  0.00  0.00    -0.011 C 
ATOM     13  C   UNL     1      33.623  -0.251  17.252  0.00  0.00    +0.010 C 
ATOM     14  C   UNL     1      35.043   0.191  17.704  0.00  0.00    +0.030 C 
ATOM     15  C   UNL     1      35.614   1.359  16.870  0.00  0.00    -0.048 A 
ENDROOT
BRANCH  10  16
ATOM     16  C   UNL     1      33.483  -3.692  19.131  0.00  0.00    +0.109 C 
ATOM     17  N   UNL     1      34.237  -4.398  19.912  0.00  0.00    -0.296 N 
ATOM     18  H   UNL     1      35.266  -4.344  19.942  0.00  0.00    +0.187 HD
ATOM     19  C   UNL     1      33.462  -5.281  20.754  0.00  0.00    +0.156 C 
ATOM     20  C   UNL     1      32.034  -4.897  20.254  0.00  0.00    +0.150 C 
ATOM     21  N   UNL     1      32.235  -3.888  19.232  0.00  0.00    -0.273 NA
ENDBRANCH  10  16
BRANCH   3  22
ATOM     22  O   UNL     1      36.923   4.399  14.250  0.00  0.00    -0.339 OA
ATOM     23  H   UNL     1      36.721   4.209  13.341  0.00  0.00    +0.246 HD
ENDBRANCH   3  22
BRANCH   9  24
ATOM     24  C   UNL     1      35.577  -1.930  20.105  0.00  0.00    +0.183 C 
BRANCH  24  25
ATOM     25  C   UNL     1      36.919  -2.147  20.631  0.00  0.00    +0.089 C 
ATOM     26  N   UNL     1      37.986  -2.318  21.047  0.00  0.00    -0.304 NA
ENDBRANCH  24  25
ENDBRANCH   9  24
TORSDOF 4
ENDMDL
MODEL 14
REMARK VINA RESULT:    -8.120      8.876     11.932
REMARK INTER + INTRA:          -4.975
REMARK INTER:                  -5.328
REMARK INTRA:                   0.354
REMARK UNBOUND:                 4.806
REMARK  Name = 301
REMARK  5 active torsions:
REMARK  status: ('A' for Active; 'I' for Inactive)
REMARK    1  A    between atoms: C_3  and  O_4
REMARK    2  A    between atoms: C_5  and  C_17
REMARK    3  A    between atoms: C_15  and  C_20
REMARK    4  A    between atoms: C_15  and  C_23
REMARK    5  A    between atoms: C_16  and  C_17
REMARK                            x       y       z     vdW  Elec       q    Type
REMARK                         _______ _______ _______ _____ _____    ______ ____
ROOT
ATOM      1  C   UNL     1      35.906   1.204  16.124  0.00  0.00    -0.024 A 
ATOM      2  C   UNL     1      36.933   1.782  15.375  0.00  0.00    +0.000 A 
ATOM      3  C   UNL     1      38.264   1.451  15.632  0.00  0.00    +0.074 A 
ATOM      4  C   UNL     1      38.552   0.565  16.675  0.00  0.00    +0.008 A 
ATOM      5  C   UNL     1      37.523  -0.007  17.433  0.00  0.00    -0.049 A 
ATOM      6  C   UNL     1      37.924  -0.887  18.623  0.00  0.00    +0.058 C 
ATOM      7  C   UNL     1      36.716  -1.195  19.540  0.00  0.00    +0.018 C 
ATOM      8  C   UNL     1      35.540  -1.694  18.664  0.00  0.00    +0.003 C 
ATOM      9  C   UNL     1      34.402  -2.422  19.457  0.00  0.00    +0.012 C 
ATOM     10  C   UNL     1      33.310  -2.965  18.471  0.00  0.00    +0.024 C 
ATOM     11  C   UNL     1      33.809  -4.160  17.595  0.00  0.00    -0.014 C 
ATOM     12  C   UNL     1      32.818  -1.799  17.557  0.00  0.00    -0.011 C 
ATOM     13  C   UNL     1      33.960  -1.059  16.804  0.00  0.00    +0.010 C 
ATOM     14  C   UNL     1      35.022  -0.511  17.798  0.00  0.00    +0.030 C 
ATOM     15  C   UNL     1      36.181   0.238  17.103  0.00  0.00    -0.048 A 
ENDROOT
BRANCH  10  16
ATOM     16  C   UNL     1      32.122  -3.517  19.249  0.00  0.00    +0.109 C 
ATOM     17  N   UNL     1      32.222  -4.506  20.077  0.00  0.00    -0.296 N 
ATOM     18  H   UNL     1      33.096  -5.011  20.288  0.00  0.00    +0.187 HD
ATOM     19  C   UNL     1      30.952  -4.827  20.688  0.00  0.00    +0.156 C 
ATOM     20  C   UNL     1      30.071  -3.744  19.988  0.00  0.00    +0.150 C 
ATOM     21  N   UNL     1      30.967  -3.013  19.115  0.00  0.00    -0.273 NA
ENDBRANCH  10  16
BRANCH   3  22
ATOM     22  O   UNL     1      39.274   2.015  14.847  0.00  0.00    -0.339 OA
ATOM     23  H   UNL     1      40.033   1.455  14.722  0.00  0.00    +0.246 HD
ENDBRANCH   3  22
BRANCH   9  24
ATOM     24  C   UNL     1      33.786  -1.564  20.611  0.00  0.00    +0.183 C 
BRANCH  24  25
ATOM     25  C   UNL     1      33.399  -2.370  21.761  0.00  0.00    +0.089 C 
ATOM     26  N   UNL     1      33.089  -3.010  22.675  0.00  0.00    -0.304 NA
ENDBRANCH  24  25
ENDBRANCH   9  24
TORSDOF 4
ENDMDL
MODEL 15
REMARK VINA RESULT:    -7.543      8.746     11.011
REMARK INTER + INTRA:          -4.280
REMARK INTER:                  -6.078
REMARK INTRA:                   1.798
REMARK UNBOUND:                 4.806
REMARK  Name = 301
REMARK  5 active torsions:
REMARK  status: ('A' for Active; 'I' for Inactive)
REMARK    1  A    between atoms: C_3  and  O_4
REMARK    2  A    between atoms: C_5  and  C_17
REMARK    3  A    between atoms: C_15  and  C_20
REMARK    4  A    between atoms: C_15  and  C_23
REMARK    5  A    between atoms: C_16  and  C_17
REMARK                            x       y       z     vdW  Elec       q    Type
REMARK                         _______ _______ _______ _____ _____    ______ ____
ROOT
ATOM      1  C   UNL     1      31.736  -2.867  17.933  0.00  0.00    -0.024 A 
ATOM      2  C   UNL     1      30.623  -3.360  18.618  0.00  0.00    +0.000 A 
ATOM      3  C   UNL     1      30.687  -3.587  19.993  0.00  0.00    +0.074 A 
ATOM      4  C   UNL     1      31.893  -3.353  20.662  0.00  0.00    +0.008 A 
ATOM      5  C   UNL     1      33.012  -2.869  19.973  0.00  0.00    -0.049 A 
ATOM      6  C   UNL     1      34.324  -2.736  20.756  0.00  0.00    +0.058 C 
ATOM      7  C   UNL     1      35.529  -2.490  19.817  0.00  0.00    +0.018 C 
ATOM      8  C   UNL     1      35.174  -1.340  18.841  0.00  0.00    +0.003 C 
ATOM      9  C   UNL     1      36.405  -0.704  18.111  0.00  0.00    +0.012 C 
ATOM     10  C   UNL     1      35.949   0.505  17.222  0.00  0.00    +0.024 C 
ATOM     11  C   UNL     1      35.485   1.743  18.056  0.00  0.00    -0.014 C 
ATOM     12  C   UNL     1      34.802   0.039  16.272  0.00  0.00    -0.011 C 
ATOM     13  C   UNL     1      33.602  -0.625  17.004  0.00  0.00    +0.010 C 
ATOM     14  C   UNL     1      34.070  -1.833  17.864  0.00  0.00    +0.030 C 
ATOM     15  C   UNL     1      32.915  -2.533  18.614  0.00  0.00    -0.048 A 
ENDROOT
BRANCH  10  16
ATOM     16  C   UNL     1      37.113   1.011  16.380  0.00  0.00    +0.109 C 
ATOM     17  N   UNL     1      36.956   1.795  15.362  0.00  0.00    -0.296 N 
ATOM     18  H   UNL     1      36.048   2.145  15.023  0.00  0.00    +0.187 HD
ATOM     19  C   UNL     1      38.219   2.133  14.745  0.00  0.00    +0.156 C 
ATOM     20  C   UNL     1      39.169   1.330  15.688  0.00  0.00    +0.150 C 
ATOM     21  N   UNL     1      38.306   0.683  16.656  0.00  0.00    -0.273 NA
ENDBRANCH  10  16
BRANCH   3  22
ATOM     22  O   UNL     1      29.551  -4.047  20.666  0.00  0.00    -0.339 OA
ATOM     23  H   UNL     1      29.231  -4.890  20.363  0.00  0.00    +0.246 HD
ENDBRANCH   3  22
BRANCH   9  24
ATOM     24  C   UNL     1      37.269  -1.735  17.313  0.00  0.00    +0.183 C 
BRANCH  24  25
ATOM     25  C   UNL     1      36.464  -2.583  16.442  0.00  0.00    +0.089 C 
ATOM     26  N   UNL     1      35.824  -3.256  15.751  0.00  0.00    -0.304 NA
ENDBRANCH  24  25
ENDBRANCH   9  24
TORSDOF 4
ENDMDL
MODEL 16
REMARK VINA RESULT:    -4.412      2.041      2.704
REMARK INTER + INTRA:          -0.509
REMARK INTER:                  -1.578
REMARK INTRA:                   1.069
REMARK UNBOUND:                 4.806
REMARK  Name = 301
REMARK  5 active torsions:
REMARK  status: ('A' for Active; 'I' for Inactive)
REMARK    1  A    between atoms: C_3  and  O_4
REMARK    2  A    between atoms: C_5  and  C_17
REMARK    3  A    between atoms: C_15  and  C_20
REMARK    4  A    between atoms: C_15  and  C_23
REMARK    5  A    between atoms: C_16  and  C_17
REMARK                            x       y       z     vdW  Elec       q    Type
REMARK                         _______ _______ _______ _____ _____    ______ ____
ROOT
ATOM      1  C   UNL     1      29.172  -2.771  28.264  0.00  0.00    -0.024 A 
ATOM      2  C   UNL     1      28.209  -3.650  27.765  0.00  0.00    +0.000 A 
ATOM      3  C   UNL     1      27.461  -3.310  26.637  0.00  0.00    +0.074 A 
ATOM      4  C   UNL     1      27.665  -2.061  26.042  0.00  0.00    +0.008 A 
ATOM      5  C   UNL     1      28.623  -1.175  26.548  0.00  0.00    -0.049 A 
ATOM      6  C   UNL     1      28.714   0.214  25.904  0.00  0.00    +0.058 C 
ATOM      7  C   UNL     1      29.584   1.180  26.745  0.00  0.00    +0.018 C 
ATOM      8  C   UNL     1      30.921   0.476  27.088  0.00  0.00    +0.003 C 
ATOM      9  C   UNL     1      32.056   1.439  27.574  0.00  0.00    +0.012 C 
ATOM     10  C   UNL     1      33.387   0.643  27.805  0.00  0.00    +0.024 C 
ATOM     11  C   UNL     1      34.040   0.135  26.479  0.00  0.00    -0.014 C 
ATOM     12  C   UNL     1      33.106  -0.561  28.759  0.00  0.00    -0.011 C 
ATOM     13  C   UNL     1      31.952  -1.489  28.285  0.00  0.00    +0.010 C 
ATOM     14  C   UNL     1      30.637  -0.686  28.081  0.00  0.00    +0.030 C 
ATOM     15  C   UNL     1      29.453  -1.561  27.611  0.00  0.00    -0.048 A 
ENDROOT
BRANCH  10  16
ATOM     16  C   UNL     1      34.438   1.542  28.442  0.00  0.00    +0.109 C 
ATOM     17  N   UNL     1      35.011   2.513  27.807  0.00  0.00    -0.296 N 
ATOM     18  H   UNL     1      34.820   2.769  26.827  0.00  0.00    +0.187 HD
ATOM     19  C   UNL     1      35.962   3.214  28.641  0.00  0.00    +0.156 C 
ATOM     20  C   UNL     1      35.787   2.385  29.952  0.00  0.00    +0.150 C 
ATOM     21  N   UNL     1      34.795   1.373  29.647  0.00  0.00    -0.273 NA
ENDBRANCH  10  16
BRANCH   3  22
ATOM     22  O   UNL     1      26.526  -4.220  26.134  0.00  0.00    -0.339 OA
ATOM     23  H   UNL     1      25.625  -4.024  26.365  0.00  0.00    +0.246 HD
ENDBRANCH   3  22
BRANCH   9  24
ATOM     24  C   UNL     1      31.661   2.307  28.814  0.00  0.00    +0.183 C 
BRANCH  24  25
ATOM     25  C   UNL     1      31.027   1.523  29.866  0.00  0.00    +0.089 C 
ATOM     26  N   UNL     1      30.526   0.900  30.704  0.00  0.00    -0.304 NA
ENDBRANCH  24  25
ENDBRANCH   9  24
TORSDOF 4
ENDMDL
MODEL 17
REMARK VINA RESULT:    -1.477      8.613     11.593
REMARK INTER + INTRA:           3.028
REMARK INTER:                   1.932
REMARK INTRA:                   1.096
REMARK UNBOUND:                 4.806
REMARK  Name = 301
REMARK  5 active torsions:
REMARK  status: ('A' for Active; 'I' for Inactive)
REMARK    1  A    between atoms: C_3  and  O_4
REMARK    2  A    between atoms: C_5  and  C_17
REMARK    3  A    between atoms: C_15  and  C_20
REMARK    4  A    between atoms: C_15  and  C_23
REMARK    5  A    between atoms: C_16  and  C_17
REMARK                            x       y       z     vdW  Elec       q    Type
REMARK                         _______ _______ _______ _____ _____    ______ ____
ROOT
ATOM      1  C   UNL     1      35.908   1.317  17.528  0.00  0.00    -0.024 A 
ATOM      2  C   UNL     1      36.277   2.231  16.538  0.00  0.00    +0.000 A 
ATOM      3  C   UNL     1      36.514   1.797  15.233  0.00  0.00    +0.074 A 
ATOM      4  C   UNL     1      36.417   0.432  14.945  0.00  0.00    +0.008 A 
ATOM      5  C   UNL     1      36.058  -0.486  15.940  0.00  0.00    -0.049 A 
ATOM      6  C   UNL     1      36.074  -1.974  15.570  0.00  0.00    +0.058 C 
ATOM      7  C   UNL     1      35.959  -2.876  16.822  0.00  0.00    +0.018 C 
ATOM      8  C   UNL     1      34.773  -2.380  17.687  0.00  0.00    +0.003 C 
ATOM      9  C   UNL     1      34.274  -3.409  18.758  0.00  0.00    +0.012 C 
ATOM     10  C   UNL     1      33.019  -2.848  19.512  0.00  0.00    +0.024 C 
ATOM     11  C   UNL     1      31.740  -2.779  18.616  0.00  0.00    -0.014 C 
ATOM     12  C   UNL     1      33.352  -1.432  20.080  0.00  0.00    -0.011 C 
ATOM     13  C   UNL     1      33.882  -0.430  19.015  0.00  0.00    +0.010 C 
ATOM     14  C   UNL     1      35.137  -0.995  18.292  0.00  0.00    +0.030 C 
ATOM     15  C   UNL     1      35.709  -0.037  17.223  0.00  0.00    -0.048 A 
ENDROOT
BRANCH  10  16
ATOM     16  C   UNL     1      32.641  -3.766  20.667  0.00  0.00    +0.109 C 
ATOM     17  N   UNL     1      32.100  -4.929  20.493  0.00  0.00    -0.296 N 
ATOM     18  H   UNL     1      31.871  -5.340  19.575  0.00  0.00    +0.187 HD
ATOM     19  C   UNL     1      31.849  -5.599  21.749  0.00  0.00    +0.156 C 
ATOM     20  C   UNL     1      32.400  -4.505  22.717  0.00  0.00    +0.150 C 
ATOM     21  N   UNL     1      32.854  -3.422  21.868  0.00  0.00    -0.273 NA
ENDBRANCH  10  16
BRANCH   3  22
ATOM     22  O   UNL     1      36.849   2.734  14.250  0.00  0.00    -0.339 OA
ATOM     23  H   UNL     1      37.772   2.748  14.020  0.00  0.00    +0.246 HD
ENDBRANCH   3  22
BRANCH   9  24
ATOM     24  C   UNL     1      35.392  -3.890  19.740  0.00  0.00    +0.183 C 
BRANCH  24  25
ATOM     25  C   UNL     1      36.220  -2.794  20.225  0.00  0.00    +0.089 C 
ATOM     26  N   UNL     1      36.880  -1.923  20.609  0.00  0.00    -0.304 NA
ENDBRANCH  24  25
ENDBRANCH   9  24
TORSDOF 4
ENDMDL
MODEL 18
REMARK VINA RESULT:     1.798      9.693     12.629
REMARK INTER + INTRA:           6.972
REMARK INTER:                   5.841
REMARK INTRA:                   1.131
REMARK UNBOUND:                 4.806
REMARK  Name = 301
REMARK  5 active torsions:
REMARK  status: ('A' for Active; 'I' for Inactive)
REMARK    1  A    between atoms: C_3  and  O_4
REMARK    2  A    between atoms: C_5  and  C_17
REMARK    3  A    between atoms: C_15  and  C_20
REMARK    4  A    between atoms: C_15  and  C_23
REMARK    5  A    between atoms: C_16  and  C_17
REMARK                            x       y       z     vdW  Elec       q    Type
REMARK                         _______ _______ _______ _____ _____    ______ ____
ROOT
ATOM      1  C   UNL     1      36.194   2.420  17.156  0.00  0.00    -0.024 A 
ATOM      2  C   UNL     1      36.422   3.608  16.458  0.00  0.00    +0.000 A 
ATOM      3  C   UNL     1      36.277   3.648  15.071  0.00  0.00    +0.074 A 
ATOM      4  C   UNL     1      35.940   2.473  14.391  0.00  0.00    +0.008 A 
ATOM      5  C   UNL     1      35.722   1.279  15.090  0.00  0.00    -0.049 A 
ATOM      6  C   UNL     1      35.459   0.013  14.265  0.00  0.00    +0.058 C 
ATOM      7  C   UNL     1      35.540  -1.264  15.135  0.00  0.00    +0.018 C 
ATOM      8  C   UNL     1      34.674  -1.060  16.404  0.00  0.00    +0.003 C 
ATOM      9  C   UNL     1      34.327  -2.379  17.173  0.00  0.00    +0.012 C 
ATOM     10  C   UNL     1      33.375  -2.073  18.382  0.00  0.00    +0.024 C 
ATOM     11  C   UNL     1      31.935  -1.652  17.942  0.00  0.00    -0.014 C 
ATOM     12  C   UNL     1      34.013  -0.956  19.266  0.00  0.00    -0.011 C 
ATOM     13  C   UNL     1      34.389   0.335  18.485  0.00  0.00    +0.010 C 
ATOM     14  C   UNL     1      35.347   0.015  17.304  0.00  0.00    +0.030 C 
ATOM     15  C   UNL     1      35.756   1.264  16.493  0.00  0.00    -0.048 A 
ENDROOT
BRANCH  10  16
ATOM     16  C   UNL     1      33.178  -3.322  19.230  0.00  0.00    +0.109 C 
ATOM     17  N   UNL     1      32.046  -3.630  19.776  0.00  0.00    -0.296 N 
ATOM     18  H   UNL     1      31.183  -3.072  19.697  0.00  0.00    +0.187 HD
ATOM     19  C   UNL     1      32.127  -4.868  20.519  0.00  0.00    +0.156 C 
ATOM     20  C   UNL     1      33.627  -5.208  20.255  0.00  0.00    +0.150 C 
ATOM     21  N   UNL     1      34.135  -4.129  19.431  0.00  0.00    -0.273 NA
ENDBRANCH  10  16
BRANCH   3  22
ATOM     22  O   UNL     1      36.476   4.856  14.395  0.00  0.00    -0.339 OA
ATOM     23  H   UNL     1      35.694   5.213  13.991  0.00  0.00    +0.246 HD
ENDBRANCH   3  22
BRANCH   9  24
ATOM     24  C   UNL     1      35.580  -3.211  17.600  0.00  0.00    +0.183 C 
BRANCH  24  25
ATOM     25  C   UNL     1      36.114  -4.017  16.509  0.00  0.00    +0.089 C 
ATOM     26  N   UNL     1      36.536  -4.659  15.643  0.00  0.00    -0.304 NA
ENDBRANCH  24  25
ENDBRANCH   9  24
TORSDOF 4
ENDMDL
MODEL 19
REMARK VINA RESULT:     7.704      8.421     10.681
REMARK INTER + INTRA:          14.086
REMARK INTER:                  11.633
REMARK INTRA:                   2.453
REMARK UNBOUND:                 4.806
REMARK  Name = 301
REMARK  5 active torsions:
REMARK  status: ('A' for Active; 'I' for Inactive)
REMARK    1  A    between atoms: C_3  and  O_4
REMARK    2  A    between atoms: C_5  and  C_17
REMARK    3  A    between atoms: C_15  and  C_20
REMARK    4  A    between atoms: C_15  and  C_23
REMARK    5  A    between atoms: C_16  and  C_17
REMARK                            x       y       z     vdW  Elec       q    Type
REMARK                         _______ _______ _______ _____ _____    ______ ____
ROOT
ATOM      1  C   UNL     1      31.440  -1.636  18.743  0.00  0.00    -0.024 A 
ATOM      2  C   UNL     1      30.320  -1.861  19.547  0.00  0.00    +0.000 A 
ATOM      3  C   UNL     1      30.446  -2.557  20.750  0.00  0.00    +0.074 A 
ATOM      4  C   UNL     1      31.699  -3.058  21.114  0.00  0.00    +0.008 A 
ATOM      5  C   UNL     1      32.820  -2.842  20.304  0.00  0.00    -0.049 A 
ATOM      6  C   UNL     1      34.136  -3.510  20.720  0.00  0.00    +0.058 C 
ATOM      7  C   UNL     1      35.194  -3.443  19.593  0.00  0.00    +0.018 C 
ATOM      8  C   UNL     1      35.281  -1.985  19.076  0.00  0.00    +0.003 C 
ATOM      9  C   UNL     1      36.564  -1.667  18.237  0.00  0.00    +0.012 C 
ATOM     10  C   UNL     1      36.598  -0.149  17.842  0.00  0.00    +0.024 C 
ATOM     11  C   UNL     1      36.853   0.799  19.059  0.00  0.00    -0.014 C 
ATOM     12  C   UNL     1      35.256   0.229  17.141  0.00  0.00    -0.011 C 
ATOM     13  C   UNL     1      33.987  -0.126  17.967  0.00  0.00    +0.010 C 
ATOM     14  C   UNL     1      33.961  -1.637  18.331  0.00  0.00    +0.030 C 
ATOM     15  C   UNL     1      32.717  -2.046  19.152  0.00  0.00    -0.048 A 
ENDROOT
BRANCH  10  16
ATOM     16  C   UNL     1      37.750   0.122  16.884  0.00  0.00    +0.109 C 
ATOM     17  N   UNL     1      38.632   1.048  17.088  0.00  0.00    -0.296 N 
ATOM     18  H   UNL     1      38.642   1.682  17.900  0.00  0.00    +0.187 HD
ATOM     19  C   UNL     1      39.620   1.090  16.034  0.00  0.00    +0.156 C 
ATOM     20  C   UNL     1      39.076  -0.075  15.149  0.00  0.00    +0.150 C 
ATOM     21  N   UNL     1      37.895  -0.567  15.830  0.00  0.00    -0.273 NA
ENDBRANCH  10  16
BRANCH   3  22
ATOM     22  O   UNL     1      29.318  -2.742  21.555  0.00  0.00    -0.339 OA
ATOM     23  H   UNL     1      29.445  -3.351  22.274  0.00  0.00    +0.246 HD
ENDBRANCH   3  22
BRANCH   9  24
ATOM     24  C   UNL     1      36.760  -2.606  17.002  0.00  0.00    +0.183 C 
BRANCH  24  25
ATOM     25  C   UNL     1      35.658  -2.519  16.053  0.00  0.00    +0.089 C 
ATOM     26  N   UNL     1      34.781  -2.449  15.300  0.00  0.00    -0.304 NA
ENDBRANCH  24  25
ENDBRANCH   9  24
TORSDOF 4
ENDMDL
