MODEL 1
REMARK VINA RESULT:    -9.420      0.000      0.000
REMARK INTER + INTRA:         -19.781
REMARK INTER:                 -17.990
REMARK INTRA:                  -1.791
REMARK UNBOUND:                -0.999
REMARK  Name = 116
REMARK  20 active torsions:
REMARK  status: ('A' for Active; 'I' for Inactive)
REMARK    1  A    between atoms: C_3  and  O_4
REMARK    2  A    between atoms: C_5  and  C_17
REMARK    3  A    between atoms: C_5  and  C_59
REMARK    4  A    between atoms: C_15  and  C_20
REMARK    5  A    between atoms: C_15  and  C_23
REMARK    6  A    between atoms: C_16  and  C_17
REMARK    7  A    between atoms: C_23  and  O_25
REMARK    8  A    between atoms: C_27  and  C_28
REMARK    9  A    between atoms: C_27  and  C_59
REMARK   10  A    between atoms: C_28  and  C_30
REMARK   11  A    between atoms: C_30  and  C_32
REMARK   12  A    between atoms: C_32  and  C_47
REMARK   13  A    between atoms: C_47  and  C_48
REMARK   14  A    between atoms: C_48  and  C_49
REMARK   15  A    between atoms: C_49  and  C_50
REMARK   16  A    between atoms: C_50  and  C_51
REMARK   17  A    between atoms: C_51  and  C_52
REMARK   18  A    between atoms: C_52  and  C_53
REMARK   19  A    between atoms: C_53  and  C_54
REMARK   20  A    between atoms: C_54  and  C_55
REMARK                            x       y       z     vdW  Elec       q    Type
REMARK                         _______ _______ _______ _____ _____    ______ ____
ROOT
ATOM      1  C   UNL     1      28.113   0.415  26.616  0.00  0.00    -0.024 A 
ATOM      2  C   UNL     1      26.764   0.187  26.901  0.00  0.00    +0.000 A 
ATOM      3  C   UNL     1      26.367  -0.998  27.523  0.00  0.00    +0.074 A 
ATOM      4  C   UNL     1      27.331  -1.971  27.809  0.00  0.00    +0.008 A 
ATOM      5  C   UNL     1      28.679  -1.754  27.498  0.00  0.00    -0.049 A 
ATOM      6  C   UNL     1      29.662  -2.911  27.726  0.00  0.00    +0.058 C 
ATOM      7  C   UNL     1      30.985  -2.664  26.958  0.00  0.00    +0.017 C 
ATOM      8  C   UNL     1      31.526  -1.260  27.336  0.00  0.00    -0.011 C 
ATOM      9  C   UNL     1      33.030  -0.952  27.028  0.00  0.00    -0.066 C 
ATOM     10  C   UNL     1      33.430   0.384  27.761  0.00  0.00    -0.024 C 
ATOM     11  C   UNL     1      33.483   0.261  29.320  0.00  0.00    -0.096 C 
ATOM     12  C   UNL     1      32.455   1.534  27.350  0.00  0.00    -0.079 C 
ATOM     13  C   UNL     1      30.951   1.179  27.521  0.00  0.00    -0.004 C 
ATOM     14  C   UNL     1      30.584  -0.150  26.803  0.00  0.00    +0.028 C 
ATOM     15  C   UNL     1      29.093  -0.515  26.985  0.00  0.00    -0.049 A 
ENDROOT
BRANCH   3  16
ATOM     16  O   UNL     1      25.019  -1.186  27.844  0.00  0.00    -0.339 OA
ATOM     17  H   UNL     1      24.861  -1.405  28.754  0.00  0.00    +0.246 HD
ENDBRANCH   3  16
BRANCH  10  18
ATOM     18  C   UNL     1      34.844   0.791  27.392  0.00  0.00    +0.266 C 
BRANCH  18  19
ATOM     19  O   UNL     1      35.803   0.201  28.121  0.00  0.00    -0.261 OA
ATOM     20  H   UNL     1      36.402  -0.332  27.609  0.00  0.00    +0.320 HD
ENDBRANCH  18  19
ENDBRANCH  10  18
BRANCH   9  21
ATOM     21  C   UNL     1      33.457  -0.907  25.516  0.00  0.00    -0.012 C 
BRANCH  21  22
ATOM     22  C   UNL     1      32.459  -0.268  24.508  0.00  0.00    +0.010 C 
BRANCH  22  23
ATOM     23  C   UNL     1      31.794  -1.332  23.592  0.00  0.00    +0.035 C 
BRANCH  23  24
ATOM     24  C   UNL     1      32.543  -2.641  23.657  0.00  0.00    -0.099 C 
BRANCH  24  25
ATOM     25  C   UNL     1      32.592  -3.488  22.408  0.00  0.00    +0.035 C 
BRANCH  25  26
ATOM     26  C   UNL     1      33.278  -2.736  21.236  0.00  0.00    +0.012 C 
BRANCH  26  27
ATOM     27  C   UNL     1      33.236  -3.569  19.927  0.00  0.00    +0.002 C 
BRANCH  27  28
ATOM     28  C   UNL     1      31.887  -3.377  19.182  0.00  0.00    +0.000 C 
BRANCH  28  29
ATOM     29  C   UNL     1      32.067  -2.548  17.881  0.00  0.00    +0.000 C 
BRANCH  29  30
ATOM     30  C   UNL     1      33.014  -3.269  16.882  0.00  0.00    -0.000 C 
BRANCH  30  31
ATOM     31  C   UNL     1      34.133  -2.321  16.372  0.00  0.00    -0.000 C 
BRANCH  31  32
ATOM     32  C   UNL     1      34.220  -1.037  17.242  0.00  0.00    -0.000 C 
BRANCH  32  33
ATOM     33  C   UNL     1      35.695  -0.627  17.507  0.00  0.00    -0.000 C 
BRANCH  33  34
ATOM     34  C   UNL     1      35.914  -0.251  18.998  0.00  0.00    -0.000 C 
BRANCH  34  35
ATOM     35  C   UNL     1      36.434  -1.464  19.817  0.00  0.00    -0.003 C 
ATOM     36  C   UNL     1      37.982  -1.462  19.902  0.00  0.00    +0.004 C 
ENDBRANCH  34  35
ENDBRANCH  33  34
ENDBRANCH  32  33
ENDBRANCH  31  32
ENDBRANCH  30  31
ENDBRANCH  29  30
ENDBRANCH  28  29
ENDBRANCH  27  28
ENDBRANCH  26  27
ENDBRANCH  25  26
ENDBRANCH  24  25
ENDBRANCH  23  24
ENDBRANCH  22  23
ENDBRANCH  21  22
ENDBRANCH   9  21
TORSDOF 18
ENDMDL
MODEL 2
REMARK VINA RESULT:    -8.894      3.062      7.900
REMARK INTER + INTRA:         -18.731
REMARK INTER:                 -15.099
REMARK INTRA:                  -3.632
REMARK UNBOUND:                -0.999
REMARK  Name = 116
REMARK  20 active torsions:
REMARK  status: ('A' for Active; 'I' for Inactive)
REMARK    1  A    between atoms: C_3  and  O_4
REMARK    2  A    between atoms: C_5  and  C_17
REMARK    3  A    between atoms: C_5  and  C_59
REMARK    4  A    between atoms: C_15  and  C_20
REMARK    5  A    between atoms: C_15  and  C_23
REMARK    6  A    between atoms: C_16  and  C_17
REMARK    7  A    between atoms: C_23  and  O_25
REMARK    8  A    between atoms: C_27  and  C_28
REMARK    9  A    between atoms: C_27  and  C_59
REMARK   10  A    between atoms: C_28  and  C_30
REMARK   11  A    between atoms: C_30  and  C_32
REMARK   12  A    between atoms: C_32  and  C_47
REMARK   13  A    between atoms: C_47  and  C_48
REMARK   14  A    between atoms: C_48  and  C_49
REMARK   15  A    between atoms: C_49  and  C_50
REMARK   16  A    between atoms: C_50  and  C_51
REMARK   17  A    between atoms: C_51  and  C_52
REMARK   18  A    between atoms: C_52  and  C_53
REMARK   19  A    between atoms: C_53  and  C_54
REMARK   20  A    between atoms: C_54  and  C_55
REMARK                            x       y       z     vdW  Elec       q    Type
REMARK                         _______ _______ _______ _____ _____    ______ ____
ROOT
ATOM      1  C   UNL     1      32.172  -4.737  23.103  0.00  0.00    -0.024 A 
ATOM      2  C   UNL     1      32.371  -4.992  21.743  0.00  0.00    +0.000 A 
ATOM      3  C   UNL     1      32.549  -3.936  20.848  0.00  0.00    +0.074 A 
ATOM      4  C   UNL     1      32.473  -2.622  21.324  0.00  0.00    +0.008 A 
ATOM      5  C   UNL     1      32.247  -2.366  22.682  0.00  0.00    -0.049 A 
ATOM      6  C   UNL     1      32.053  -0.906  23.113  0.00  0.00    +0.058 C 
ATOM      7  C   UNL     1      31.408  -0.832  24.520  0.00  0.00    +0.017 C 
ATOM      8  C   UNL     1      32.244  -1.698  25.498  0.00  0.00    -0.011 C 
ATOM      9  C   UNL     1      32.050  -1.458  27.033  0.00  0.00    -0.066 C 
ATOM     10  C   UNL     1      33.196  -2.209  27.809  0.00  0.00    -0.024 C 
ATOM     11  C   UNL     1      34.617  -1.584  27.604  0.00  0.00    -0.096 C 
ATOM     12  C   UNL     1      33.216  -3.719  27.407  0.00  0.00    -0.079 C 
ATOM     13  C   UNL     1      33.265  -3.964  25.872  0.00  0.00    -0.004 C 
ATOM     14  C   UNL     1      32.134  -3.200  25.126  0.00  0.00    +0.028 C 
ATOM     15  C   UNL     1      32.190  -3.428  23.599  0.00  0.00    -0.049 A 
ENDROOT
BRANCH   3  16
ATOM     16  O   UNL     1      32.794  -4.214  19.500  0.00  0.00    -0.339 OA
ATOM     17  H   UNL     1      32.892  -5.138  19.303  0.00  0.00    +0.246 HD
ENDBRANCH   3  16
BRANCH  10  18
ATOM     18  C   UNL     1      32.981  -2.108  29.307  0.00  0.00    +0.266 C 
BRANCH  18  19
ATOM     19  O   UNL     1      34.106  -2.121  30.036  0.00  0.00    -0.261 OA
ATOM     20  H   UNL     1      34.221  -1.350  30.581  0.00  0.00    +0.320 HD
ENDBRANCH  18  19
ENDBRANCH  10  18
BRANCH   9  21
ATOM     21  C   UNL     1      30.643  -1.808  27.642  0.00  0.00    -0.012 C 
BRANCH  21  22
ATOM     22  C   UNL     1      29.903  -3.048  27.066  0.00  0.00    +0.010 C 
BRANCH  22  23
ATOM     23  C   UNL     1      28.366  -2.831  26.997  0.00  0.00    +0.035 C 
BRANCH  23  24
ATOM     24  C   UNL     1      28.037  -1.538  26.290  0.00  0.00    -0.099 C 
BRANCH  24  25
ATOM     25  C   UNL     1      26.969  -0.658  26.892  0.00  0.00    +0.035 C 
BRANCH  25  26
ATOM     26  C   UNL     1      27.481   0.791  27.111  0.00  0.00    +0.012 C 
BRANCH  26  27
ATOM     27  C   UNL     1      28.751   1.077  26.265  0.00  0.00    +0.002 C 
BRANCH  27  28
ATOM     28  C   UNL     1      29.887   1.673  27.141  0.00  0.00    +0.000 C 
BRANCH  28  29
ATOM     29  C   UNL     1      29.458   1.787  28.630  0.00  0.00    +0.000 C 
BRANCH  29  30
ATOM     30  C   UNL     1      30.599   1.329  29.579  0.00  0.00    -0.000 C 
BRANCH  30  31
ATOM     31  C   UNL     1      31.997   1.691  29.007  0.00  0.00    -0.000 C 
BRANCH  31  32
ATOM     32  C   UNL     1      33.108   1.493  30.075  0.00  0.00    -0.000 C 
BRANCH  32  33
ATOM     33  C   UNL     1      34.522   1.491  29.431  0.00  0.00    -0.000 C 
BRANCH  33  34
ATOM     34  C   UNL     1      34.552   2.354  28.139  0.00  0.00    -0.000 C 
BRANCH  34  35
ATOM     35  C   UNL     1      34.724   1.471  26.874  0.00  0.00    -0.003 C 
ATOM     36  C   UNL     1      33.575   1.713  25.860  0.00  0.00    +0.004 C 
ENDBRANCH  34  35
ENDBRANCH  33  34
ENDBRANCH  32  33
ENDBRANCH  31  32
ENDBRANCH  30  31
ENDBRANCH  29  30
ENDBRANCH  28  29
ENDBRANCH  27  28
ENDBRANCH  26  27
ENDBRANCH  25  26
ENDBRANCH  24  25
ENDBRANCH  23  24
ENDBRANCH  22  23
ENDBRANCH  21  22
ENDBRANCH   9  21
TORSDOF 18
ENDMDL
MODEL 3
REMARK VINA RESULT:    -8.652      0.926      2.268
REMARK INTER + INTRA:         -18.250
REMARK INTER:                 -16.505
REMARK INTRA:                  -1.745
REMARK UNBOUND:                -0.999
REMARK  Name = 116
REMARK  20 active torsions:
REMARK  status: ('A' for Active; 'I' for Inactive)
REMARK    1  A    between atoms: C_3  and  O_4
REMARK    2  A    between atoms: C_5  and  C_17
REMARK    3  A    between atoms: C_5  and  C_59
REMARK    4  A    between atoms: C_15  and  C_20
REMARK    5  A    between atoms: C_15  and  C_23
REMARK    6  A    between atoms: C_16  and  C_17
REMARK    7  A    between atoms: C_23  and  O_25
REMARK    8  A    between atoms: C_27  and  C_28
REMARK    9  A    between atoms: C_27  and  C_59
REMARK   10  A    between atoms: C_28  and  C_30
REMARK   11  A    between atoms: C_30  and  C_32
REMARK   12  A    between atoms: C_32  and  C_47
REMARK   13  A    between atoms: C_47  and  C_48
REMARK   14  A    between atoms: C_48  and  C_49
REMARK   15  A    between atoms: C_49  and  C_50
REMARK   16  A    between atoms: C_50  and  C_51
REMARK   17  A    between atoms: C_51  and  C_52
REMARK   18  A    between atoms: C_52  and  C_53
REMARK   19  A    between atoms: C_53  and  C_54
REMARK   20  A    between atoms: C_54  and  C_55
REMARK                            x       y       z     vdW  Elec       q    Type
REMARK                         _______ _______ _______ _____ _____    ______ ____
ROOT
ATOM      1  C   UNL     1      28.003   0.415  26.410  0.00  0.00    -0.024 A 
ATOM      2  C   UNL     1      26.625   0.299  26.612  0.00  0.00    +0.000 A 
ATOM      3  C   UNL     1      26.113  -0.742  27.388  0.00  0.00    +0.074 A 
ATOM      4  C   UNL     1      26.994  -1.694  27.914  0.00  0.00    +0.008 A 
ATOM      5  C   UNL     1      28.372  -1.594  27.689  0.00  0.00    -0.049 A 
ATOM      6  C   UNL     1      29.265  -2.736  28.191  0.00  0.00    +0.058 C 
ATOM      7  C   UNL     1      30.656  -2.684  27.509  0.00  0.00    +0.017 C 
ATOM      8  C   UNL     1      31.247  -1.262  27.691  0.00  0.00    -0.011 C 
ATOM      9  C   UNL     1      32.785  -1.077  27.467  0.00  0.00    -0.066 C 
ATOM     10  C   UNL     1      33.205   0.345  27.997  0.00  0.00    -0.024 C 
ATOM     11  C   UNL     1      33.130   0.490  29.553  0.00  0.00    -0.096 C 
ATOM     12  C   UNL     1      32.334   1.450  27.317  0.00  0.00    -0.079 C 
ATOM     13  C   UNL     1      30.802   1.197  27.415  0.00  0.00    -0.004 C 
ATOM     14  C   UNL     1      30.415  -0.219  26.901  0.00  0.00    +0.028 C 
ATOM     15  C   UNL     1      28.896  -0.480  27.012  0.00  0.00    -0.049 A 
ENDROOT
BRANCH   3  16
ATOM     16  O   UNL     1      24.736  -0.813  27.618  0.00  0.00    -0.339 OA
ATOM     17  H   UNL     1      24.219  -1.001  26.843  0.00  0.00    +0.246 HD
ENDBRANCH   3  16
BRANCH  10  18
ATOM     18  C   UNL     1      34.665   0.620  27.689  0.00  0.00    +0.266 C 
BRANCH  18  19
ATOM     19  O   UNL     1      34.880   1.688  26.908  0.00  0.00    -0.261 OA
ATOM     20  H   UNL     1      34.859   2.516  27.374  0.00  0.00    +0.320 HD
ENDBRANCH  18  19
ENDBRANCH  10  18
BRANCH   9  21
ATOM     21  C   UNL     1      33.330  -1.312  26.010  0.00  0.00    -0.012 C 
BRANCH  21  22
ATOM     22  C   UNL     1      33.655  -2.774  25.595  0.00  0.00    +0.010 C 
BRANCH  22  23
ATOM     23  C   UNL     1      32.514  -3.409  24.752  0.00  0.00    +0.035 C 
BRANCH  23  24
ATOM     24  C   UNL     1      32.529  -2.877  23.340  0.00  0.00    -0.099 C 
BRANCH  24  25
ATOM     25  C   UNL     1      32.493  -3.877  22.209  0.00  0.00    +0.035 C 
BRANCH  25  26
ATOM     26  C   UNL     1      32.782  -3.202  20.842  0.00  0.00    +0.012 C 
BRANCH  26  27
ATOM     27  C   UNL     1      34.285  -3.303  20.467  0.00  0.00    +0.002 C 
BRANCH  27  28
ATOM     28  C   UNL     1      34.899  -1.898  20.221  0.00  0.00    +0.000 C 
BRANCH  28  29
ATOM     29  C   UNL     1      36.449  -1.928  20.322  0.00  0.00    +0.000 C 
BRANCH  29  30
ATOM     30  C   UNL     1      37.097  -0.963  19.291  0.00  0.00    -0.000 C 
BRANCH  30  31
ATOM     31  C   UNL     1      36.111   0.154  18.857  0.00  0.00    -0.000 C 
BRANCH  31  32
ATOM     32  C   UNL     1      36.424   0.653  17.419  0.00  0.00    -0.000 C 
BRANCH  32  33
ATOM     33  C   UNL     1      35.331   0.205  16.411  0.00  0.00    -0.000 C 
BRANCH  33  34
ATOM     34  C   UNL     1      35.034  -1.314  16.542  0.00  0.00    -0.000 C 
BRANCH  34  35
ATOM     35  C   UNL     1      33.573  -1.567  17.004  0.00  0.00    -0.003 C 
ATOM     36  C   UNL     1      33.223  -3.077  16.959  0.00  0.00    +0.004 C 
ENDBRANCH  34  35
ENDBRANCH  33  34
ENDBRANCH  32  33
ENDBRANCH  31  32
ENDBRANCH  30  31
ENDBRANCH  29  30
ENDBRANCH  28  29
ENDBRANCH  27  28
ENDBRANCH  26  27
ENDBRANCH  25  26
ENDBRANCH  24  25
ENDBRANCH  23  24
ENDBRANCH  22  23
ENDBRANCH  21  22
ENDBRANCH   9  21
TORSDOF 18
ENDMDL
MODEL 4
REMARK VINA RESULT:    -8.624      0.830      2.706
REMARK INTER + INTRA:         -18.193
REMARK INTER:                 -16.495
REMARK INTRA:                  -1.698
REMARK UNBOUND:                -0.999
REMARK  Name = 116
REMARK  20 active torsions:
REMARK  status: ('A' for Active; 'I' for Inactive)
REMARK    1  A    between atoms: C_3  and  O_4
REMARK    2  A    between atoms: C_5  and  C_17
REMARK    3  A    between atoms: C_5  and  C_59
REMARK    4  A    between atoms: C_15  and  C_20
REMARK    5  A    between atoms: C_15  and  C_23
REMARK    6  A    between atoms: C_16  and  C_17
REMARK    7  A    between atoms: C_23  and  O_25
REMARK    8  A    between atoms: C_27  and  C_28
REMARK    9  A    between atoms: C_27  and  C_59
REMARK   10  A    between atoms: C_28  and  C_30
REMARK   11  A    between atoms: C_30  and  C_32
REMARK   12  A    between atoms: C_32  and  C_47
REMARK   13  A    between atoms: C_47  and  C_48
REMARK   14  A    between atoms: C_48  and  C_49
REMARK   15  A    between atoms: C_49  and  C_50
REMARK   16  A    between atoms: C_50  and  C_51
REMARK   17  A    between atoms: C_51  and  C_52
REMARK   18  A    between atoms: C_52  and  C_53
REMARK   19  A    between atoms: C_53  and  C_54
REMARK   20  A    between atoms: C_54  and  C_55
REMARK                            x       y       z     vdW  Elec       q    Type
REMARK                         _______ _______ _______ _____ _____    ______ ____
ROOT
ATOM      1  C   UNL     1      27.996   0.211  26.608  0.00  0.00    -0.024 A 
ATOM      2  C   UNL     1      26.665   0.005  26.983  0.00  0.00    +0.000 A 
ATOM      3  C   UNL     1      26.301  -1.153  27.672  0.00  0.00    +0.074 A 
ATOM      4  C   UNL     1      27.275  -2.123  27.935  0.00  0.00    +0.008 A 
ATOM      5  C   UNL     1      28.602  -1.929  27.535  0.00  0.00    -0.049 A 
ATOM      6  C   UNL     1      29.590  -3.084  27.745  0.00  0.00    +0.058 C 
ATOM      7  C   UNL     1      30.866  -2.876  26.889  0.00  0.00    +0.017 C 
ATOM      8  C   UNL     1      31.437  -1.464  27.181  0.00  0.00    -0.011 C 
ATOM      9  C   UNL     1      32.921  -1.179  26.771  0.00  0.00    -0.066 C 
ATOM     10  C   UNL     1      33.373   0.180  27.428  0.00  0.00    -0.024 C 
ATOM     11  C   UNL     1      33.520   0.113  28.984  0.00  0.00    -0.096 C 
ATOM     12  C   UNL     1      32.381   1.322  27.035  0.00  0.00    -0.079 C 
ATOM     13  C   UNL     1      30.888   0.986  27.311  0.00  0.00    -0.004 C 
ATOM     14  C   UNL     1      30.470  -0.367  26.665  0.00  0.00    +0.028 C 
ATOM     15  C   UNL     1      28.992  -0.712  26.951  0.00  0.00    -0.049 A 
ENDROOT
BRANCH   3  16
ATOM     16  O   UNL     1      24.974  -1.318  28.081  0.00  0.00    -0.339 OA
ATOM     17  H   UNL     1      24.754  -2.203  28.347  0.00  0.00    +0.246 HD
ENDBRANCH   3  16
BRANCH  10  18
ATOM     18  C   UNL     1      34.764   0.561  26.959  0.00  0.00    +0.266 C 
BRANCH  18  19
ATOM     19  O   UNL     1      35.758   0.129  27.749  0.00  0.00    -0.261 OA
ATOM     20  H   UNL     1      36.624   0.394  27.458  0.00  0.00    +0.320 HD
ENDBRANCH  18  19
ENDBRANCH  10  18
BRANCH   9  21
ATOM     21  C   UNL     1      33.255  -1.193  25.235  0.00  0.00    -0.012 C 
BRANCH  21  22
ATOM     22  C   UNL     1      32.105  -0.841  24.249  0.00  0.00    +0.010 C 
BRANCH  22  23
ATOM     23  C   UNL     1      31.896  -1.947  23.177  0.00  0.00    +0.035 C 
BRANCH  23  24
ATOM     24  C   UNL     1      33.220  -2.414  22.621  0.00  0.00    -0.099 C 
BRANCH  24  25
ATOM     25  C   UNL     1      33.345  -2.556  21.123  0.00  0.00    +0.035 C 
BRANCH  25  26
ATOM     26  C   UNL     1      34.829  -2.667  20.682  0.00  0.00    +0.012 C 
BRANCH  26  27
ATOM     27  C   UNL     1      35.318  -1.357  20.007  0.00  0.00    +0.002 C 
BRANCH  27  28
ATOM     28  C   UNL     1      36.580  -1.610  19.138  0.00  0.00    +0.000 C 
BRANCH  28  29
ATOM     29  C   UNL     1      36.373  -1.124  17.677  0.00  0.00    +0.000 C 
BRANCH  29  30
ATOM     30  C   UNL     1      34.935  -0.575  17.467  0.00  0.00    -0.000 C 
BRANCH  30  31
ATOM     31  C   UNL     1      34.022  -1.618  16.769  0.00  0.00    -0.000 C 
BRANCH  31  32
ATOM     32  C   UNL     1      32.726  -1.868  17.589  0.00  0.00    -0.000 C 
BRANCH  32  33
ATOM     33  C   UNL     1      32.453  -3.386  17.774  0.00  0.00    -0.000 C 
BRANCH  33  34
ATOM     34  C   UNL     1      30.936  -3.665  17.961  0.00  0.00    -0.000 C 
BRANCH  34  35
ATOM     35  C   UNL     1      30.619  -4.111  19.414  0.00  0.00    -0.003 C 
ATOM     36  C   UNL     1      29.659  -3.111  20.111  0.00  0.00    +0.004 C 
ENDBRANCH  34  35
ENDBRANCH  33  34
ENDBRANCH  32  33
ENDBRANCH  31  32
ENDBRANCH  30  31
ENDBRANCH  29  30
ENDBRANCH  28  29
ENDBRANCH  27  28
ENDBRANCH  26  27
ENDBRANCH  25  26
ENDBRANCH  24  25
ENDBRANCH  23  24
ENDBRANCH  22  23
ENDBRANCH  21  22
ENDBRANCH   9  21
TORSDOF 18
ENDMDL
MODEL 5
REMARK VINA RESULT:    -8.117      3.055     10.167
REMARK INTER + INTRA:         -17.183
REMARK INTER:                 -14.569
REMARK INTRA:                  -2.614
REMARK UNBOUND:                -0.999
REMARK  Name = 116
REMARK  20 active torsions:
REMARK  status: ('A' for Active; 'I' for Inactive)
REMARK    1  A    between atoms: C_3  and  O_4
REMARK    2  A    between atoms: C_5  and  C_17
REMARK    3  A    between atoms: C_5  and  C_59
REMARK    4  A    between atoms: C_15  and  C_20
REMARK    5  A    between atoms: C_15  and  C_23
REMARK    6  A    between atoms: C_16  and  C_17
REMARK    7  A    between atoms: C_23  and  O_25
REMARK    8  A    between atoms: C_27  and  C_28
REMARK    9  A    between atoms: C_27  and  C_59
REMARK   10  A    between atoms: C_28  and  C_30
REMARK   11  A    between atoms: C_30  and  C_32
REMARK   12  A    between atoms: C_32  and  C_47
REMARK   13  A    between atoms: C_47  and  C_48
REMARK   14  A    between atoms: C_48  and  C_49
REMARK   15  A    between atoms: C_49  and  C_50
REMARK   16  A    between atoms: C_50  and  C_51
REMARK   17  A    between atoms: C_51  and  C_52
REMARK   18  A    between atoms: C_52  and  C_53
REMARK   19  A    between atoms: C_53  and  C_54
REMARK   20  A    between atoms: C_54  and  C_55
REMARK                            x       y       z     vdW  Elec       q    Type
REMARK                         _______ _______ _______ _____ _____    ______ ____
ROOT
ATOM      1  C   UNL     1      34.403  -0.783  16.940  0.00  0.00    -0.024 A 
ATOM      2  C   UNL     1      35.325  -0.350  15.983  0.00  0.00    +0.000 A 
ATOM      3  C   UNL     1      36.695  -0.456  16.227  0.00  0.00    +0.074 A 
ATOM      4  C   UNL     1      37.128  -0.953  17.462  0.00  0.00    +0.008 A 
ATOM      5  C   UNL     1      36.205  -1.362  18.432  0.00  0.00    -0.049 A 
ATOM      6  C   UNL     1      36.747  -1.780  19.805  0.00  0.00    +0.058 C 
ATOM      7  C   UNL     1      35.612  -1.790  20.861  0.00  0.00    +0.017 C 
ATOM      8  C   UNL     1      34.442  -2.656  20.326  0.00  0.00    -0.011 C 
ATOM      9  C   UNL     1      33.377  -3.159  21.358  0.00  0.00    -0.066 C 
ATOM     10  C   UNL     1      32.478  -4.250  20.663  0.00  0.00    -0.024 C 
ATOM     11  C   UNL     1      33.228  -5.590  20.359  0.00  0.00    -0.096 C 
ATOM     12  C   UNL     1      31.858  -3.677  19.348  0.00  0.00    -0.079 C 
ATOM     13  C   UNL     1      32.900  -3.047  18.380  0.00  0.00    -0.004 C 
ATOM     14  C   UNL     1      33.785  -1.985  19.093  0.00  0.00    +0.028 C 
ATOM     15  C   UNL     1      34.832  -1.368  18.138  0.00  0.00    -0.049 A 
ENDROOT
BRANCH   3  16
ATOM     16  O   UNL     1      37.600  -0.062  15.238  0.00  0.00    -0.339 OA
ATOM     17  H   UNL     1      37.678   0.879  15.131  0.00  0.00    +0.246 HD
ENDBRANCH   3  16
BRANCH  10  18
ATOM     18  C   UNL     1      31.352  -4.679  21.584  0.00  0.00    +0.266 C 
BRANCH  18  19
ATOM     19  O   UNL     1      31.270  -6.002  21.789  0.00  0.00    -0.261 OA
ATOM     20  H   UNL     1      30.537  -6.415  21.346  0.00  0.00    +0.320 HD
ENDBRANCH  18  19
ENDBRANCH  10  18
BRANCH   9  21
ATOM     21  C   UNL     1      32.486  -2.068  22.058  0.00  0.00    -0.012 C 
BRANCH  21  22
ATOM     22  C   UNL     1      32.474  -2.044  23.613  0.00  0.00    +0.010 C 
BRANCH  22  23
ATOM     23  C   UNL     1      31.732  -0.799  24.172  0.00  0.00    +0.035 C 
BRANCH  23  24
ATOM     24  C   UNL     1      32.320  -0.372  25.495  0.00  0.00    -0.099 C 
BRANCH  24  25
ATOM     25  C   UNL     1      32.923  -1.441  26.375  0.00  0.00    +0.035 C 
BRANCH  25  26
ATOM     26  C   UNL     1      31.997  -1.784  27.572  0.00  0.00    +0.012 C 
BRANCH  26  27
ATOM     27  C   UNL     1      30.776  -2.631  27.119  0.00  0.00    +0.002 C 
BRANCH  27  28
ATOM     28  C   UNL     1      29.615  -2.538  28.146  0.00  0.00    +0.000 C 
BRANCH  28  29
ATOM     29  C   UNL     1      28.231  -2.671  27.455  0.00  0.00    +0.000 C 
BRANCH  29  30
ATOM     30  C   UNL     1      28.107  -1.693  26.254  0.00  0.00    -0.000 C 
BRANCH  30  31
ATOM     31  C   UNL     1      27.078  -0.566  26.541  0.00  0.00    -0.000 C 
BRANCH  31  32
ATOM     32  C   UNL     1      27.744   0.626  27.284  0.00  0.00    -0.000 C 
BRANCH  32  33
ATOM     33  C   UNL     1      28.947   1.195  26.484  0.00  0.00    -0.000 C 
BRANCH  33  34
ATOM     34  C   UNL     1      30.043   1.748  27.436  0.00  0.00    -0.000 C 
BRANCH  34  35
ATOM     35  C   UNL     1      29.877   1.187  28.875  0.00  0.00    -0.003 C 
ATOM     36  C   UNL     1      31.218   1.234  29.654  0.00  0.00    +0.004 C 
ENDBRANCH  34  35
ENDBRANCH  33  34
ENDBRANCH  32  33
ENDBRANCH  31  32
ENDBRANCH  30  31
ENDBRANCH  29  30
ENDBRANCH  28  29
ENDBRANCH  27  28
ENDBRANCH  26  27
ENDBRANCH  25  26
ENDBRANCH  24  25
ENDBRANCH  23  24
ENDBRANCH  22  23
ENDBRANCH  21  22
ENDBRANCH   9  21
TORSDOF 18
ENDMDL
MODEL 6
REMARK VINA RESULT:    -7.916      3.020     10.366
REMARK INTER + INTRA:         -16.782
REMARK INTER:                 -14.415
REMARK INTRA:                  -2.368
REMARK UNBOUND:                -0.999
REMARK  Name = 116
REMARK  20 active torsions:
REMARK  status: ('A' for Active; 'I' for Inactive)
REMARK    1  A    between atoms: C_3  and  O_4
REMARK    2  A    between atoms: C_5  and  C_17
REMARK    3  A    between atoms: C_5  and  C_59
REMARK    4  A    between atoms: C_15  and  C_20
REMARK    5  A    between atoms: C_15  and  C_23
REMARK    6  A    between atoms: C_16  and  C_17
REMARK    7  A    between atoms: C_23  and  O_25
REMARK    8  A    between atoms: C_27  and  C_28
REMARK    9  A    between atoms: C_27  and  C_59
REMARK   10  A    between atoms: C_28  and  C_30
REMARK   11  A    between atoms: C_30  and  C_32
REMARK   12  A    between atoms: C_32  and  C_47
REMARK   13  A    between atoms: C_47  and  C_48
REMARK   14  A    between atoms: C_48  and  C_49
REMARK   15  A    between atoms: C_49  and  C_50
REMARK   16  A    between atoms: C_50  and  C_51
REMARK   17  A    between atoms: C_51  and  C_52
REMARK   18  A    between atoms: C_52  and  C_53
REMARK   19  A    between atoms: C_53  and  C_54
REMARK   20  A    between atoms: C_54  and  C_55
REMARK                            x       y       z     vdW  Elec       q    Type
REMARK                         _______ _______ _______ _____ _____    ______ ____
ROOT
ATOM      1  C   UNL     1      34.607  -0.551  17.077  0.00  0.00    -0.024 A 
ATOM      2  C   UNL     1      35.553  -0.108  16.148  0.00  0.00    +0.000 A 
ATOM      3  C   UNL     1      36.915  -0.282  16.393  0.00  0.00    +0.074 A 
ATOM      4  C   UNL     1      37.319  -0.859  17.603  0.00  0.00    +0.008 A 
ATOM      5  C   UNL     1      36.373  -1.278  18.546  0.00  0.00    -0.049 A 
ATOM      6  C   UNL     1      36.886  -1.787  19.899  0.00  0.00    +0.058 C 
ATOM      7  C   UNL     1      35.745  -1.804  20.947  0.00  0.00    +0.017 C 
ATOM      8  C   UNL     1      34.544  -2.593  20.363  0.00  0.00    -0.011 C 
ATOM      9  C   UNL     1      33.452  -3.103  21.362  0.00  0.00    -0.066 C 
ATOM     10  C   UNL     1      32.514  -4.120  20.608  0.00  0.00    -0.024 C 
ATOM     11  C   UNL     1      33.211  -5.472  20.240  0.00  0.00    -0.096 C 
ATOM     12  C   UNL     1      31.928  -3.456  19.320  0.00  0.00    -0.079 C 
ATOM     13  C   UNL     1      33.002  -2.821  18.391  0.00  0.00    -0.004 C 
ATOM     14  C   UNL     1      33.924  -1.833  19.162  0.00  0.00    +0.028 C 
ATOM     15  C   UNL     1      35.002  -1.213  18.246  0.00  0.00    -0.049 A 
ENDROOT
BRANCH   3  16
ATOM     16  O   UNL     1      37.843   0.124  15.430  0.00  0.00    -0.339 OA
ATOM     17  H   UNL     1      38.228  -0.588  14.933  0.00  0.00    +0.246 HD
ENDBRANCH   3  16
BRANCH  10  18
ATOM     18  C   UNL     1      31.365  -4.548  21.500  0.00  0.00    +0.266 C 
BRANCH  18  19
ATOM     19  O   UNL     1      31.297  -5.867  21.729  0.00  0.00    -0.261 OA
ATOM     20  H   UNL     1      31.695  -6.136  22.551  0.00  0.00    +0.320 HD
ENDBRANCH  18  19
ENDBRANCH  10  18
BRANCH   9  21
ATOM     21  C   UNL     1      32.601  -2.013  22.112  0.00  0.00    -0.012 C 
BRANCH  21  22
ATOM     22  C   UNL     1      32.454  -2.157  23.653  0.00  0.00    +0.010 C 
BRANCH  22  23
ATOM     23  C   UNL     1      31.333  -1.242  24.220  0.00  0.00    +0.035 C 
BRANCH  23  24
ATOM     24  C   UNL     1      31.881  -0.309  25.273  0.00  0.00    -0.099 C 
BRANCH  24  25
ATOM     25  C   UNL     1      32.835  -0.883  26.294  0.00  0.00    +0.035 C 
BRANCH  25  26
ATOM     26  C   UNL     1      33.078   0.106  27.466  0.00  0.00    +0.012 C 
BRANCH  26  27
ATOM     27  C   UNL     1      32.224   1.393  27.306  0.00  0.00    +0.002 C 
BRANCH  27  28
ATOM     28  C   UNL     1      31.557   1.795  28.649  0.00  0.00    +0.000 C 
BRANCH  28  29
ATOM     29  C   UNL     1      30.160   1.134  28.811  0.00  0.00    +0.000 C 
BRANCH  29  30
ATOM     30  C   UNL     1      29.083   1.889  27.984  0.00  0.00    -0.000 C 
BRANCH  30  31
ATOM     31  C   UNL     1      28.596   1.044  26.776  0.00  0.00    -0.000 C 
BRANCH  31  32
ATOM     32  C   UNL     1      27.237   0.357  27.082  0.00  0.00    -0.000 C 
BRANCH  32  33
ATOM     33  C   UNL     1      27.428  -1.134  27.473  0.00  0.00    -0.000 C 
BRANCH  33  34
ATOM     34  C   UNL     1      28.291  -1.884  26.421  0.00  0.00    -0.000 C 
BRANCH  34  35
ATOM     35  C   UNL     1      29.173  -2.975  27.088  0.00  0.00    -0.003 C 
ATOM     36  C   UNL     1      30.054  -2.374  28.214  0.00  0.00    +0.004 C 
ENDBRANCH  34  35
ENDBRANCH  33  34
ENDBRANCH  32  33
ENDBRANCH  31  32
ENDBRANCH  30  31
ENDBRANCH  29  30
ENDBRANCH  28  29
ENDBRANCH  27  28
ENDBRANCH  26  27
ENDBRANCH  25  26
ENDBRANCH  24  25
ENDBRANCH  23  24
ENDBRANCH  22  23
ENDBRANCH  21  22
ENDBRANCH   9  21
TORSDOF 18
ENDMDL
MODEL 7
REMARK VINA RESULT:    -7.582      3.122      9.990
REMARK INTER + INTRA:         -16.115
REMARK INTER:                 -13.761
REMARK INTRA:                  -2.354
REMARK UNBOUND:                -0.999
REMARK  Name = 116
REMARK  20 active torsions:
REMARK  status: ('A' for Active; 'I' for Inactive)
REMARK    1  A    between atoms: C_3  and  O_4
REMARK    2  A    between atoms: C_5  and  C_17
REMARK    3  A    between atoms: C_5  and  C_59
REMARK    4  A    between atoms: C_15  and  C_20
REMARK    5  A    between atoms: C_15  and  C_23
REMARK    6  A    between atoms: C_16  and  C_17
REMARK    7  A    between atoms: C_23  and  O_25
REMARK    8  A    between atoms: C_27  and  C_28
REMARK    9  A    between atoms: C_27  and  C_59
REMARK   10  A    between atoms: C_28  and  C_30
REMARK   11  A    between atoms: C_30  and  C_32
REMARK   12  A    between atoms: C_32  and  C_47
REMARK   13  A    between atoms: C_47  and  C_48
REMARK   14  A    between atoms: C_48  and  C_49
REMARK   15  A    between atoms: C_49  and  C_50
REMARK   16  A    between atoms: C_50  and  C_51
REMARK   17  A    between atoms: C_51  and  C_52
REMARK   18  A    between atoms: C_52  and  C_53
REMARK   19  A    between atoms: C_53  and  C_54
REMARK   20  A    between atoms: C_54  and  C_55
REMARK                            x       y       z     vdW  Elec       q    Type
REMARK                         _______ _______ _______ _____ _____    ______ ____
ROOT
ATOM      1  C   UNL     1      34.268  -1.018  16.858  0.00  0.00    -0.024 A 
ATOM      2  C   UNL     1      35.139  -0.612  15.843  0.00  0.00    +0.000 A 
ATOM      3  C   UNL     1      36.520  -0.644  16.047  0.00  0.00    +0.074 A 
ATOM      4  C   UNL     1      37.013  -1.037  17.296  0.00  0.00    +0.008 A 
ATOM      5  C   UNL     1      36.139  -1.417  18.322  0.00  0.00    -0.049 A 
ATOM      6  C   UNL     1      36.742  -1.718  19.701  0.00  0.00    +0.058 C 
ATOM      7  C   UNL     1      35.642  -1.703  20.793  0.00  0.00    +0.017 C 
ATOM      8  C   UNL     1      34.495  -2.652  20.358  0.00  0.00    -0.011 C 
ATOM      9  C   UNL     1      33.486  -3.128  21.457  0.00  0.00    -0.066 C 
ATOM     10  C   UNL     1      32.615  -4.301  20.867  0.00  0.00    -0.024 C 
ATOM     11  C   UNL     1      33.414  -5.625  20.628  0.00  0.00    -0.096 C 
ATOM     12  C   UNL     1      31.930  -3.845  19.539  0.00  0.00    -0.079 C 
ATOM     13  C   UNL     1      32.912  -3.239  18.496  0.00  0.00    -0.004 C 
ATOM     14  C   UNL     1      33.771  -2.094  19.106  0.00  0.00    +0.028 C 
ATOM     15  C   UNL     1      34.759  -1.501  18.077  0.00  0.00    -0.049 A 
ENDROOT
BRANCH   3  16
ATOM     16  O   UNL     1      37.375  -0.280  15.003  0.00  0.00    -0.339 OA
ATOM     17  H   UNL     1      37.151  -0.663  14.162  0.00  0.00    +0.246 HD
ENDBRANCH   3  16
BRANCH  10  18
ATOM     18  C   UNL     1      31.539  -4.713  21.853  0.00  0.00    +0.266 C 
BRANCH  18  19
ATOM     19  O   UNL     1      31.172  -6.000  21.775  0.00  0.00    -0.261 OA
ATOM     20  H   UNL     1      31.557  -6.466  21.040  0.00  0.00    +0.320 HD
ENDBRANCH  18  19
ENDBRANCH  10  18
BRANCH   9  21
ATOM     21  C   UNL     1      32.570  -2.030  22.113  0.00  0.00    -0.012 C 
BRANCH  21  22
ATOM     22  C   UNL     1      32.613  -1.895  23.661  0.00  0.00    +0.010 C 
BRANCH  22  23
ATOM     23  C   UNL     1      31.561  -0.879  24.187  0.00  0.00    +0.035 C 
BRANCH  23  24
ATOM     24  C   UNL     1      30.611  -1.542  25.155  0.00  0.00    -0.099 C 
BRANCH  24  25
ATOM     25  C   UNL     1      29.969  -0.679  26.215  0.00  0.00    +0.035 C 
BRANCH  25  26
ATOM     26  C   UNL     1      29.447  -1.530  27.403  0.00  0.00    +0.012 C 
BRANCH  26  27
ATOM     27  C   UNL     1      30.603  -2.295  28.102  0.00  0.00    +0.002 C 
BRANCH  27  28
ATOM     28  C   UNL     1      31.661  -1.313  28.676  0.00  0.00    +0.000 C 
BRANCH  28  29
ATOM     29  C   UNL     1      33.088  -1.924  28.630  0.00  0.00    +0.000 C 
BRANCH  29  30
ATOM     30  C   UNL     1      33.706  -1.800  27.210  0.00  0.00    -0.000 C 
BRANCH  30  31
ATOM     31  C   UNL     1      34.548  -0.504  27.065  0.00  0.00    -0.000 C 
BRANCH  31  32
ATOM     32  C   UNL     1      33.734   0.617  26.361  0.00  0.00    -0.000 C 
BRANCH  32  33
ATOM     33  C   UNL     1      33.443   1.800  27.325  0.00  0.00    -0.000 C 
BRANCH  33  34
ATOM     34  C   UNL     1      34.625   2.028  28.307  0.00  0.00    -0.000 C 
BRANCH  34  35
ATOM     35  C   UNL     1      34.327   1.414  29.702  0.00  0.00    -0.003 C 
ATOM     36  C   UNL     1      32.886   1.749  30.166  0.00  0.00    +0.004 C 
ENDBRANCH  34  35
ENDBRANCH  33  34
ENDBRANCH  32  33
ENDBRANCH  31  32
ENDBRANCH  30  31
ENDBRANCH  29  30
ENDBRANCH  28  29
ENDBRANCH  27  28
ENDBRANCH  26  27
ENDBRANCH  25  26
ENDBRANCH  24  25
ENDBRANCH  23  24
ENDBRANCH  22  23
ENDBRANCH  21  22
ENDBRANCH   9  21
TORSDOF 18
ENDMDL
MODEL 8
REMARK VINA RESULT:    -7.436      3.065     10.350
REMARK INTER + INTRA:         -15.825
REMARK INTER:                 -14.163
REMARK INTRA:                  -1.662
REMARK UNBOUND:                -0.999
REMARK  Name = 116
REMARK  20 active torsions:
REMARK  status: ('A' for Active; 'I' for Inactive)
REMARK    1  A    between atoms: C_3  and  O_4
REMARK    2  A    between atoms: C_5  and  C_17
REMARK    3  A    between atoms: C_5  and  C_59
REMARK    4  A    between atoms: C_15  and  C_20
REMARK    5  A    between atoms: C_15  and  C_23
REMARK    6  A    between atoms: C_16  and  C_17
REMARK    7  A    between atoms: C_23  and  O_25
REMARK    8  A    between atoms: C_27  and  C_28
REMARK    9  A    between atoms: C_27  and  C_59
REMARK   10  A    between atoms: C_28  and  C_30
REMARK   11  A    between atoms: C_30  and  C_32
REMARK   12  A    between atoms: C_32  and  C_47
REMARK   13  A    between atoms: C_47  and  C_48
REMARK   14  A    between atoms: C_48  and  C_49
REMARK   15  A    between atoms: C_49  and  C_50
REMARK   16  A    between atoms: C_50  and  C_51
REMARK   17  A    between atoms: C_51  and  C_52
REMARK   18  A    between atoms: C_52  and  C_53
REMARK   19  A    between atoms: C_53  and  C_54
REMARK   20  A    between atoms: C_54  and  C_55
REMARK                            x       y       z     vdW  Elec       q    Type
REMARK                         _______ _______ _______ _____ _____    ______ ____
ROOT
ATOM      1  C   UNL     1      34.398  -0.885  16.984  0.00  0.00    -0.024 A 
ATOM      2  C   UNL     1      35.330  -0.446  16.038  0.00  0.00    +0.000 A 
ATOM      3  C   UNL     1      36.695  -0.485  16.325  0.00  0.00    +0.074 A 
ATOM      4  C   UNL     1      37.111  -0.921  17.588  0.00  0.00    +0.008 A 
ATOM      5  C   UNL     1      36.177  -1.335  18.545  0.00  0.00    -0.049 A 
ATOM      6  C   UNL     1      36.694  -1.683  19.947  0.00  0.00    +0.058 C 
ATOM      7  C   UNL     1      35.530  -1.706  20.970  0.00  0.00    +0.017 C 
ATOM      8  C   UNL     1      34.413  -2.638  20.433  0.00  0.00    -0.011 C 
ATOM      9  C   UNL     1      33.339  -3.151  21.451  0.00  0.00    -0.066 C 
ATOM     10  C   UNL     1      32.508  -4.302  20.770  0.00  0.00    -0.024 C 
ATOM     11  C   UNL     1      33.322  -5.618  20.535  0.00  0.00    -0.096 C 
ATOM     12  C   UNL     1      31.905  -3.801  19.418  0.00  0.00    -0.079 C 
ATOM     13  C   UNL     1      32.948  -3.161  18.459  0.00  0.00    -0.004 C 
ATOM     14  C   UNL     1      33.766  -2.038  19.159  0.00  0.00    +0.028 C 
ATOM     15  C   UNL     1      34.815  -1.411  18.213  0.00  0.00    -0.049 A 
ENDROOT
BRANCH   3  16
ATOM     16  O   UNL     1      37.612  -0.087  15.348  0.00  0.00    -0.339 OA
ATOM     17  H   UNL     1      38.165   0.642  15.605  0.00  0.00    +0.246 HD
ENDBRANCH   3  16
BRANCH  10  18
ATOM     18  C   UNL     1      31.374  -4.747  21.673  0.00  0.00    +0.266 C 
BRANCH  18  19
ATOM     19  O   UNL     1      31.188  -6.074  21.725  0.00  0.00    -0.261 OA
ATOM     20  H   UNL     1      31.147  -6.491  20.872  0.00  0.00    +0.320 HD
ENDBRANCH  18  19
ENDBRANCH  10  18
BRANCH   9  21
ATOM     21  C   UNL     1      32.384  -2.076  22.087  0.00  0.00    -0.012 C 
BRANCH  21  22
ATOM     22  C   UNL     1      32.329  -1.995  23.639  0.00  0.00    +0.010 C 
BRANCH  22  23
ATOM     23  C   UNL     1      32.123  -0.539  24.141  0.00  0.00    +0.035 C 
BRANCH  23  24
ATOM     24  C   UNL     1      32.710  -0.358  25.520  0.00  0.00    -0.099 C 
BRANCH  24  25
ATOM     25  C   UNL     1      33.209   1.016  25.899  0.00  0.00    +0.035 C 
BRANCH  25  26
ATOM     26  C   UNL     1      34.523   0.939  26.720  0.00  0.00    +0.012 C 
BRANCH  26  27
ATOM     27  C   UNL     1      34.244   0.565  28.201  0.00  0.00    +0.002 C 
BRANCH  27  28
ATOM     28  C   UNL     1      34.552  -0.934  28.470  0.00  0.00    +0.000 C 
BRANCH  28  29
ATOM     29  C   UNL     1      33.393  -1.623  29.242  0.00  0.00    +0.000 C 
BRANCH  29  30
ATOM     30  C   UNL     1      32.016  -1.029  28.836  0.00  0.00    -0.000 C 
BRANCH  30  31
ATOM     31  C   UNL     1      30.908  -2.116  28.825  0.00  0.00    -0.000 C 
BRANCH  31  32
ATOM     32  C   UNL     1      30.197  -2.178  27.444  0.00  0.00    -0.000 C 
BRANCH  32  33
ATOM     33  C   UNL     1      29.341  -0.908  27.186  0.00  0.00    -0.000 C 
BRANCH  33  34
ATOM     34  C   UNL     1      27.862  -1.280  26.888  0.00  0.00    -0.000 C 
BRANCH  34  35
ATOM     35  C   UNL     1      26.948  -0.024  26.915  0.00  0.00    -0.003 C 
ATOM     36  C   UNL     1      27.775   1.267  27.147  0.00  0.00    +0.004 C 
ENDBRANCH  34  35
ENDBRANCH  33  34
ENDBRANCH  32  33
ENDBRANCH  31  32
ENDBRANCH  30  31
ENDBRANCH  29  30
ENDBRANCH  28  29
ENDBRANCH  27  28
ENDBRANCH  26  27
ENDBRANCH  25  26
ENDBRANCH  24  25
ENDBRANCH  23  24
ENDBRANCH  22  23
ENDBRANCH  21  22
ENDBRANCH   9  21
TORSDOF 18
ENDMDL
MODEL 9
REMARK VINA RESULT:    -7.098      2.639      8.918
REMARK INTER + INTRA:         -15.152
REMARK INTER:                 -13.508
REMARK INTRA:                  -1.644
REMARK UNBOUND:                -0.999
REMARK  Name = 116
REMARK  20 active torsions:
REMARK  status: ('A' for Active; 'I' for Inactive)
REMARK    1  A    between atoms: C_3  and  O_4
REMARK    2  A    between atoms: C_5  and  C_17
REMARK    3  A    between atoms: C_5  and  C_59
REMARK    4  A    between atoms: C_15  and  C_20
REMARK    5  A    between atoms: C_15  and  C_23
REMARK    6  A    between atoms: C_16  and  C_17
REMARK    7  A    between atoms: C_23  and  O_25
REMARK    8  A    between atoms: C_27  and  C_28
REMARK    9  A    between atoms: C_27  and  C_59
REMARK   10  A    between atoms: C_28  and  C_30
REMARK   11  A    between atoms: C_30  and  C_32
REMARK   12  A    between atoms: C_32  and  C_47
REMARK   13  A    between atoms: C_47  and  C_48
REMARK   14  A    between atoms: C_48  and  C_49
REMARK   15  A    between atoms: C_49  and  C_50
REMARK   16  A    between atoms: C_50  and  C_51
REMARK   17  A    between atoms: C_51  and  C_52
REMARK   18  A    between atoms: C_52  and  C_53
REMARK   19  A    between atoms: C_53  and  C_54
REMARK   20  A    between atoms: C_54  and  C_55
REMARK                            x       y       z     vdW  Elec       q    Type
REMARK                         _______ _______ _______ _____ _____    ______ ____
ROOT
ATOM      1  C   UNL     1      34.018  -1.884  20.515  0.00  0.00    -0.024 A 
ATOM      2  C   UNL     1      34.071  -2.152  19.145  0.00  0.00    +0.000 A 
ATOM      3  C   UNL     1      33.391  -3.249  18.615  0.00  0.00    +0.074 A 
ATOM      4  C   UNL     1      32.700  -4.103  19.482  0.00  0.00    +0.008 A 
ATOM      5  C   UNL     1      32.669  -3.850  20.859  0.00  0.00    -0.049 A 
ATOM      6  C   UNL     1      31.997  -4.892  21.763  0.00  0.00    +0.058 C 
ATOM      7  C   UNL     1      32.411  -4.682  23.242  0.00  0.00    +0.017 C 
ATOM      8  C   UNL     1      32.140  -3.206  23.630  0.00  0.00    -0.011 C 
ATOM      9  C   UNL     1      32.080  -2.852  25.155  0.00  0.00    -0.066 C 
ATOM     10  C   UNL     1      31.498  -1.396  25.311  0.00  0.00    -0.024 C 
ATOM     11  C   UNL     1      29.984  -1.274  24.935  0.00  0.00    -0.096 C 
ATOM     12  C   UNL     1      32.340  -0.388  24.465  0.00  0.00    -0.079 C 
ATOM     13  C   UNL     1      32.523  -0.808  22.978  0.00  0.00    -0.004 C 
ATOM     14  C   UNL     1      33.083  -2.254  22.850  0.00  0.00    +0.028 C 
ATOM     15  C   UNL     1      33.250  -2.681  21.374  0.00  0.00    -0.049 A 
ENDROOT
BRANCH   3  16
ATOM     16  O   UNL     1      33.418  -3.472  17.235  0.00  0.00    -0.339 OA
ATOM     17  H   UNL     1      32.562  -3.591  16.842  0.00  0.00    +0.246 HD
ENDBRANCH   3  16
BRANCH  10  18
ATOM     18  C   UNL     1      31.535  -0.961  26.764  0.00  0.00    +0.266 C 
BRANCH  18  19
ATOM     19  O   UNL     1      30.579  -1.501  27.533  0.00  0.00    -0.261 OA
ATOM     20  H   UNL     1      30.349  -2.391  27.293  0.00  0.00    +0.320 HD
ENDBRANCH  18  19
ENDBRANCH  10  18
BRANCH   9  21
ATOM     21  C   UNL     1      33.408  -3.013  25.981  0.00  0.00    -0.012 C 
BRANCH  21  22
ATOM     22  C   UNL     1      33.279  -3.134  27.526  0.00  0.00    +0.010 C 
BRANCH  22  23
ATOM     23  C   UNL     1      34.089  -2.034  28.267  0.00  0.00    +0.035 C 
BRANCH  23  24
ATOM     24  C   UNL     1      35.076  -1.374  27.336  0.00  0.00    -0.099 C 
BRANCH  24  25
ATOM     25  C   UNL     1      35.513   0.036  27.656  0.00  0.00    +0.035 C 
BRANCH  25  26
ATOM     26  C   UNL     1      34.538   1.085  27.058  0.00  0.00    +0.012 C 
BRANCH  26  27
ATOM     27  C   UNL     1      34.093   2.119  28.127  0.00  0.00    +0.002 C 
BRANCH  27  28
ATOM     28  C   UNL     1      33.865   1.439  29.505  0.00  0.00    +0.000 C 
BRANCH  28  29
ATOM     29  C   UNL     1      32.408   0.918  29.649  0.00  0.00    +0.000 C 
BRANCH  29  30
ATOM     30  C   UNL     1      31.380   1.992  29.198  0.00  0.00    -0.000 C 
BRANCH  30  31
ATOM     31  C   UNL     1      29.947   1.405  29.102  0.00  0.00    -0.000 C 
BRANCH  31  32
ATOM     32  C   UNL     1      29.070   2.225  28.115  0.00  0.00    -0.000 C 
BRANCH  32  33
ATOM     33  C   UNL     1      28.637   1.371  26.893  0.00  0.00    -0.000 C 
BRANCH  33  34
ATOM     34  C   UNL     1      27.223   0.762  27.105  0.00  0.00    -0.000 C 
BRANCH  34  35
ATOM     35  C   UNL     1      27.286  -0.785  27.228  0.00  0.00    -0.003 C 
ATOM     36  C   UNL     1      26.100  -1.330  28.064  0.00  0.00    +0.004 C 
ENDBRANCH  34  35
ENDBRANCH  33  34
ENDBRANCH  32  33
ENDBRANCH  31  32
ENDBRANCH  30  31
ENDBRANCH  29  30
ENDBRANCH  28  29
ENDBRANCH  27  28
ENDBRANCH  26  27
ENDBRANCH  25  26
ENDBRANCH  24  25
ENDBRANCH  23  24
ENDBRANCH  22  23
ENDBRANCH  21  22
ENDBRANCH   9  21
TORSDOF 18
ENDMDL
MODEL 10
REMARK VINA RESULT:    -6.639      1.871      2.680
REMARK INTER + INTRA:         -14.235
REMARK INTER:                 -13.020
REMARK INTRA:                  -1.215
REMARK UNBOUND:                -0.999
REMARK  Name = 116
REMARK  20 active torsions:
REMARK  status: ('A' for Active; 'I' for Inactive)
REMARK    1  A    between atoms: C_3  and  O_4
REMARK    2  A    between atoms: C_5  and  C_17
REMARK    3  A    between atoms: C_5  and  C_59
REMARK    4  A    between atoms: C_15  and  C_20
REMARK    5  A    between atoms: C_15  and  C_23
REMARK    6  A    between atoms: C_16  and  C_17
REMARK    7  A    between atoms: C_23  and  O_25
REMARK    8  A    between atoms: C_27  and  C_28
REMARK    9  A    between atoms: C_27  and  C_59
REMARK   10  A    between atoms: C_28  and  C_30
REMARK   11  A    between atoms: C_30  and  C_32
REMARK   12  A    between atoms: C_32  and  C_47
REMARK   13  A    between atoms: C_47  and  C_48
REMARK   14  A    between atoms: C_48  and  C_49
REMARK   15  A    between atoms: C_49  and  C_50
REMARK   16  A    between atoms: C_50  and  C_51
REMARK   17  A    between atoms: C_51  and  C_52
REMARK   18  A    between atoms: C_52  and  C_53
REMARK   19  A    between atoms: C_53  and  C_54
REMARK   20  A    between atoms: C_54  and  C_55
REMARK                            x       y       z     vdW  Elec       q    Type
REMARK                         _______ _______ _______ _____ _____    ______ ____
ROOT
ATOM      1  C   UNL     1      30.825   1.745  26.752  0.00  0.00    -0.024 A 
ATOM      2  C   UNL     1      29.648   2.391  27.143  0.00  0.00    +0.000 A 
ATOM      3  C   UNL     1      28.816   1.813  28.103  0.00  0.00    +0.074 A 
ATOM      4  C   UNL     1      29.150   0.559  28.626  0.00  0.00    +0.008 A 
ATOM      5  C   UNL     1      30.314  -0.100  28.214  0.00  0.00    -0.049 A 
ATOM      6  C   UNL     1      30.555  -1.523  28.735  0.00  0.00    +0.058 C 
ATOM      7  C   UNL     1      31.624  -2.247  27.878  0.00  0.00    +0.017 C 
ATOM      8  C   UNL     1      32.890  -1.354  27.803  0.00  0.00    -0.011 C 
ATOM      9  C   UNL     1      34.232  -2.027  27.360  0.00  0.00    -0.066 C 
ATOM     10  C   UNL     1      35.417  -1.029  27.649  0.00  0.00    -0.024 C 
ATOM     11  C   UNL     1      35.703  -0.809  29.172  0.00  0.00    -0.096 C 
ATOM     12  C   UNL     1      35.143   0.344  26.955  0.00  0.00    -0.079 C 
ATOM     13  C   UNL     1      33.748   0.951  27.281  0.00  0.00    -0.004 C 
ATOM     14  C   UNL     1      32.598  -0.058  27.002  0.00  0.00    +0.028 C 
ATOM     15  C   UNL     1      31.212   0.535  27.341  0.00  0.00    -0.049 A 
ENDROOT
BRANCH   3  16
ATOM     16  O   UNL     1      27.668   2.497  28.516  0.00  0.00    -0.339 OA
ATOM     17  H   UNL     1      27.797   3.428  28.655  0.00  0.00    +0.246 HD
ENDBRANCH   3  16
BRANCH  10  18
ATOM     18  C   UNL     1      36.725  -1.588  27.123  0.00  0.00    +0.266 C 
BRANCH  18  19
ATOM     19  O   UNL     1      37.694  -0.677  26.953  0.00  0.00    -0.261 OA
ATOM     20  H   UNL     1      37.417   0.093  26.468  0.00  0.00    +0.320 HD
ENDBRANCH  18  19
ENDBRANCH  10  18
BRANCH   9  21
ATOM     21  C   UNL     1      34.310  -2.570  25.887  0.00  0.00    -0.012 C 
BRANCH  21  22
ATOM     22  C   UNL     1      32.966  -2.831  25.149  0.00  0.00    +0.010 C 
BRANCH  22  23
ATOM     23  C   UNL     1      32.548  -1.630  24.255  0.00  0.00    +0.035 C 
BRANCH  23  24
ATOM     24  C   UNL     1      31.918  -2.110  22.970  0.00  0.00    -0.099 C 
BRANCH  24  25
ATOM     25  C   UNL     1      32.494  -3.347  22.322  0.00  0.00    +0.035 C 
BRANCH  25  26
ATOM     26  C   UNL     1      31.451  -4.052  21.414  0.00  0.00    +0.012 C 
BRANCH  26  27
ATOM     27  C   UNL     1      32.014  -4.294  19.987  0.00  0.00    +0.002 C 
BRANCH  27  28
ATOM     28  C   UNL     1      33.517  -3.915  19.904  0.00  0.00    +0.000 C 
BRANCH  28  29
ATOM     29  C   UNL     1      33.896  -3.392  18.491  0.00  0.00    +0.000 C 
BRANCH  29  30
ATOM     30  C   UNL     1      34.299  -1.892  18.537  0.00  0.00    -0.000 C 
BRANCH  30  31
ATOM     31  C   UNL     1      34.988  -1.528  19.880  0.00  0.00    -0.000 C 
BRANCH  31  32
ATOM     32  C   UNL     1      36.533  -1.645  19.768  0.00  0.00    -0.000 C 
BRANCH  32  33
ATOM     33  C   UNL     1      37.092  -0.739  18.637  0.00  0.00    -0.000 C 
BRANCH  33  34
ATOM     34  C   UNL     1      36.356   0.630  18.599  0.00  0.00    -0.000 C 
BRANCH  34  35
ATOM     35  C   UNL     1      36.295   1.198  17.155  0.00  0.00    -0.003 C 
ATOM     36  C   UNL     1      34.835   1.245  16.632  0.00  0.00    +0.004 C 
ENDBRANCH  34  35
ENDBRANCH  33  34
ENDBRANCH  32  33
ENDBRANCH  31  32
ENDBRANCH  30  31
ENDBRANCH  29  30
ENDBRANCH  28  29
ENDBRANCH  27  28
ENDBRANCH  26  27
ENDBRANCH  25  26
ENDBRANCH  24  25
ENDBRANCH  23  24
ENDBRANCH  22  23
ENDBRANCH  21  22
ENDBRANCH   9  21
TORSDOF 18
ENDMDL
MODEL 11
REMARK VINA RESULT:    -5.807      2.742      8.468
REMARK INTER + INTRA:         -12.577
REMARK INTER:                 -10.659
REMARK INTRA:                  -1.918
REMARK UNBOUND:                -0.999
REMARK  Name = 116
REMARK  20 active torsions:
REMARK  status: ('A' for Active; 'I' for Inactive)
REMARK    1  A    between atoms: C_3  and  O_4
REMARK    2  A    between atoms: C_5  and  C_17
REMARK    3  A    between atoms: C_5  and  C_59
REMARK    4  A    between atoms: C_15  and  C_20
REMARK    5  A    between atoms: C_15  and  C_23
REMARK    6  A    between atoms: C_16  and  C_17
REMARK    7  A    between atoms: C_23  and  O_25
REMARK    8  A    between atoms: C_27  and  C_28
REMARK    9  A    between atoms: C_27  and  C_59
REMARK   10  A    between atoms: C_28  and  C_30
REMARK   11  A    between atoms: C_30  and  C_32
REMARK   12  A    between atoms: C_32  and  C_47
REMARK   13  A    between atoms: C_47  and  C_48
REMARK   14  A    between atoms: C_48  and  C_49
REMARK   15  A    between atoms: C_49  and  C_50
REMARK   16  A    between atoms: C_50  and  C_51
REMARK   17  A    between atoms: C_51  and  C_52
REMARK   18  A    between atoms: C_52  and  C_53
REMARK   19  A    between atoms: C_53  and  C_54
REMARK   20  A    between atoms: C_54  and  C_55
REMARK                            x       y       z     vdW  Elec       q    Type
REMARK                         _______ _______ _______ _____ _____    ______ ____
ROOT
ATOM      1  C   UNL     1      33.357  -2.379  21.408  0.00  0.00    -0.024 A 
ATOM      2  C   UNL     1      33.144  -3.274  20.355  0.00  0.00    +0.000 A 
ATOM      3  C   UNL     1      32.503  -4.492  20.586  0.00  0.00    +0.074 A 
ATOM      4  C   UNL     1      32.127  -4.825  21.892  0.00  0.00    +0.008 A 
ATOM      5  C   UNL     1      32.366  -3.941  22.952  0.00  0.00    -0.049 A 
ATOM      6  C   UNL     1      32.039  -4.421  24.372  0.00  0.00    +0.058 C 
ATOM      7  C   UNL     1      32.737  -3.525  25.427  0.00  0.00    +0.017 C 
ATOM      8  C   UNL     1      32.379  -2.044  25.137  0.00  0.00    -0.011 C 
ATOM      9  C   UNL     1      32.609  -1.001  26.282  0.00  0.00    -0.066 C 
ATOM     10  C   UNL     1      31.903   0.349  25.883  0.00  0.00    -0.024 C 
ATOM     11  C   UNL     1      30.339   0.272  25.885  0.00  0.00    -0.096 C 
ATOM     12  C   UNL     1      32.410   0.828  24.485  0.00  0.00    -0.079 C 
ATOM     13  C   UNL     1      32.315  -0.255  23.373  0.00  0.00    -0.004 C 
ATOM     14  C   UNL     1      33.006  -1.583  23.796  0.00  0.00    +0.028 C 
ATOM     15  C   UNL     1      32.898  -2.667  22.700  0.00  0.00    -0.049 A 
ENDROOT
BRANCH   3  16
ATOM     16  O   UNL     1      32.256  -5.351  19.511  0.00  0.00    -0.339 OA
ATOM     17  H   UNL     1      32.883  -5.279  18.801  0.00  0.00    +0.246 HD
ENDBRANCH   3  16
BRANCH  10  18
ATOM     18  C   UNL     1      32.202   1.429  26.905  0.00  0.00    +0.266 C 
BRANCH  18  19
ATOM     19  O   UNL     1      32.751   2.542  26.398  0.00  0.00    -0.261 OA
ATOM     20  H   UNL     1      33.010   2.463  25.486  0.00  0.00    +0.320 HD
ENDBRANCH  18  19
ENDBRANCH  10  18
BRANCH   9  21
ATOM     21  C   UNL     1      34.095  -0.741  26.727  0.00  0.00    -0.012 C 
BRANCH  21  22
ATOM     22  C   UNL     1      34.710  -1.717  27.770  0.00  0.00    +0.010 C 
BRANCH  22  23
ATOM     23  C   UNL     1      35.377  -0.962  28.954  0.00  0.00    +0.035 C 
BRANCH  23  24
ATOM     24  C   UNL     1      35.483   0.514  28.657  0.00  0.00    -0.099 C 
BRANCH  24  25
ATOM     25  C   UNL     1      34.949   1.480  29.688  0.00  0.00    +0.035 C 
BRANCH  25  26
ATOM     26  C   UNL     1      33.488   1.899  29.374  0.00  0.00    +0.012 C 
BRANCH  26  27
ATOM     27  C   UNL     1      32.520   1.476  30.511  0.00  0.00    +0.002 C 
BRANCH  27  28
ATOM     28  C   UNL     1      31.209   0.873  29.937  0.00  0.00    +0.000 C 
BRANCH  28  29
ATOM     29  C   UNL     1      31.398  -0.612  29.521  0.00  0.00    +0.000 C 
BRANCH  29  30
ATOM     30  C   UNL     1      30.118  -1.172  28.841  0.00  0.00    -0.000 C 
BRANCH  30  31
ATOM     31  C   UNL     1      30.372  -2.567  28.210  0.00  0.00    -0.000 C 
BRANCH  31  32
ATOM     32  C   UNL     1      29.034  -3.282  27.872  0.00  0.00    -0.000 C 
BRANCH  32  33
ATOM     33  C   UNL     1      28.161  -2.430  26.911  0.00  0.00    -0.000 C 
BRANCH  33  34
ATOM     34  C   UNL     1      27.110  -1.598  27.696  0.00  0.00    -0.000 C 
BRANCH  34  35
ATOM     35  C   UNL     1      26.573  -0.417  26.842  0.00  0.00    -0.003 C 
ATOM     36  C   UNL     1      27.263   0.917  27.230  0.00  0.00    +0.004 C 
ENDBRANCH  34  35
ENDBRANCH  33  34
ENDBRANCH  32  33
ENDBRANCH  31  32
ENDBRANCH  30  31
ENDBRANCH  29  30
ENDBRANCH  28  29
ENDBRANCH  27  28
ENDBRANCH  26  27
ENDBRANCH  25  26
ENDBRANCH  24  25
ENDBRANCH  23  24
ENDBRANCH  22  23
ENDBRANCH  21  22
ENDBRANCH   9  21
TORSDOF 18
ENDMDL
MODEL 12
REMARK VINA RESULT:    -5.522      2.610      7.933
REMARK INTER + INTRA:         -12.008
REMARK INTER:                  -9.817
REMARK INTRA:                  -2.191
REMARK UNBOUND:                -0.999
REMARK  Name = 116
REMARK  20 active torsions:
REMARK  status: ('A' for Active; 'I' for Inactive)
REMARK    1  A    between atoms: C_3  and  O_4
REMARK    2  A    between atoms: C_5  and  C_17
REMARK    3  A    between atoms: C_5  and  C_59
REMARK    4  A    between atoms: C_15  and  C_20
REMARK    5  A    between atoms: C_15  and  C_23
REMARK    6  A    between atoms: C_16  and  C_17
REMARK    7  A    between atoms: C_23  and  O_25
REMARK    8  A    between atoms: C_27  and  C_28
REMARK    9  A    between atoms: C_27  and  C_59
REMARK   10  A    between atoms: C_28  and  C_30
REMARK   11  A    between atoms: C_30  and  C_32
REMARK   12  A    between atoms: C_32  and  C_47
REMARK   13  A    between atoms: C_47  and  C_48
REMARK   14  A    between atoms: C_48  and  C_49
REMARK   15  A    between atoms: C_49  and  C_50
REMARK   16  A    between atoms: C_50  and  C_51
REMARK   17  A    between atoms: C_51  and  C_52
REMARK   18  A    between atoms: C_52  and  C_53
REMARK   19  A    between atoms: C_53  and  C_54
REMARK   20  A    between atoms: C_54  and  C_55
REMARK                            x       y       z     vdW  Elec       q    Type
REMARK                         _______ _______ _______ _____ _____    ______ ____
ROOT
ATOM      1  C   UNL     1      32.475  -4.570  22.249  0.00  0.00    -0.024 A 
ATOM      2  C   UNL     1      33.150  -4.726  21.035  0.00  0.00    +0.000 A 
ATOM      3  C   UNL     1      33.719  -3.622  20.400  0.00  0.00    +0.074 A 
ATOM      4  C   UNL     1      33.559  -2.354  20.969  0.00  0.00    +0.008 A 
ATOM      5  C   UNL     1      32.860  -2.193  22.171  0.00  0.00    -0.049 A 
ATOM      6  C   UNL     1      32.617  -0.763  22.673  0.00  0.00    +0.058 C 
ATOM      7  C   UNL     1      31.500  -0.742  23.746  0.00  0.00    +0.017 C 
ATOM      8  C   UNL     1      31.849  -1.773  24.850  0.00  0.00    -0.011 C 
ATOM      9  C   UNL     1      31.113  -1.647  26.226  0.00  0.00    -0.066 C 
ATOM     10  C   UNL     1      31.833  -2.580  27.271  0.00  0.00    -0.024 C 
ATOM     11  C   UNL     1      33.265  -2.094  27.674  0.00  0.00    -0.096 C 
ATOM     12  C   UNL     1      31.901  -4.043  26.726  0.00  0.00    -0.079 C 
ATOM     13  C   UNL     1      32.504  -4.159  25.297  0.00  0.00    -0.004 C 
ATOM     14  C   UNL     1      31.786  -3.217  24.288  0.00  0.00    +0.028 C 
ATOM     15  C   UNL     1      32.394  -3.317  22.871  0.00  0.00    -0.049 A 
ENDROOT
BRANCH   3  16
ATOM     16  O   UNL     1      34.432  -3.807  19.211  0.00  0.00    -0.339 OA
ATOM     17  H   UNL     1      35.295  -4.187  19.327  0.00  0.00    +0.246 HD
ENDBRANCH   3  16
BRANCH  10  18
ATOM     18  C   UNL     1      31.081  -2.586  28.588  0.00  0.00    +0.266 C 
BRANCH  18  19
ATOM     19  O   UNL     1      31.441  -1.617  29.441  0.00  0.00    -0.261 OA
ATOM     20  H   UNL     1      32.181  -1.098  29.145  0.00  0.00    +0.320 HD
ENDBRANCH  18  19
ENDBRANCH  10  18
BRANCH   9  21
ATOM     21  C   UNL     1      29.561  -1.897  26.234  0.00  0.00    -0.012 C 
BRANCH  21  22
ATOM     22  C   UNL     1      28.650  -0.758  25.693  0.00  0.00    +0.010 C 
BRANCH  22  23
ATOM     23  C   UNL     1      27.401  -0.533  26.591  0.00  0.00    +0.035 C 
BRANCH  23  24
ATOM     24  C   UNL     1      27.694   0.472  27.677  0.00  0.00    -0.099 C 
BRANCH  24  25
ATOM     25  C   UNL     1      28.696   1.562  27.377  0.00  0.00    +0.035 C 
BRANCH  25  26
ATOM     26  C   UNL     1      29.589   1.869  28.609  0.00  0.00    +0.012 C 
BRANCH  26  27
ATOM     27  C   UNL     1      31.005   1.252  28.451  0.00  0.00    +0.002 C 
BRANCH  27  28
ATOM     28  C   UNL     1      31.984   2.256  27.783  0.00  0.00    +0.000 C 
BRANCH  28  29
ATOM     29  C   UNL     1      32.151   1.965  26.266  0.00  0.00    +0.000 C 
BRANCH  29  30
ATOM     30  C   UNL     1      33.634   1.664  25.913  0.00  0.00    -0.000 C 
BRANCH  30  31
ATOM     31  C   UNL     1      34.133   0.366  26.604  0.00  0.00    -0.000 C 
BRANCH  31  32
ATOM     32  C   UNL     1      35.684   0.274  26.572  0.00  0.00    -0.000 C 
BRANCH  32  33
ATOM     33  C   UNL     1      36.280   0.213  28.005  0.00  0.00    -0.000 C 
BRANCH  33  34
ATOM     34  C   UNL     1      35.275  -0.424  29.004  0.00  0.00    -0.000 C 
BRANCH  34  35
ATOM     35  C   UNL     1      34.450   0.662  29.746  0.00  0.00    -0.003 C 
ATOM     36  C   UNL     1      35.201   2.018  29.771  0.00  0.00    +0.004 C 
ENDBRANCH  34  35
ENDBRANCH  33  34
ENDBRANCH  32  33
ENDBRANCH  31  32
ENDBRANCH  30  31
ENDBRANCH  29  30
ENDBRANCH  28  29
ENDBRANCH  27  28
ENDBRANCH  26  27
ENDBRANCH  25  26
ENDBRANCH  24  25
ENDBRANCH  23  24
ENDBRANCH  22  23
ENDBRANCH  21  22
ENDBRANCH   9  21
TORSDOF 18
ENDMDL
MODEL 13
REMARK VINA RESULT:    -5.102      2.688      9.132
REMARK INTER + INTRA:         -11.171
REMARK INTER:                  -9.249
REMARK INTRA:                  -1.922
REMARK UNBOUND:                -0.999
REMARK  Name = 116
REMARK  20 active torsions:
REMARK  status: ('A' for Active; 'I' for Inactive)
REMARK    1  A    between atoms: C_3  and  O_4
REMARK    2  A    between atoms: C_5  and  C_17
REMARK    3  A    between atoms: C_5  and  C_59
REMARK    4  A    between atoms: C_15  and  C_20
REMARK    5  A    between atoms: C_15  and  C_23
REMARK    6  A    between atoms: C_16  and  C_17
REMARK    7  A    between atoms: C_23  and  O_25
REMARK    8  A    between atoms: C_27  and  C_28
REMARK    9  A    between atoms: C_27  and  C_59
REMARK   10  A    between atoms: C_28  and  C_30
REMARK   11  A    between atoms: C_30  and  C_32
REMARK   12  A    between atoms: C_32  and  C_47
REMARK   13  A    between atoms: C_47  and  C_48
REMARK   14  A    between atoms: C_48  and  C_49
REMARK   15  A    between atoms: C_49  and  C_50
REMARK   16  A    between atoms: C_50  and  C_51
REMARK   17  A    between atoms: C_51  and  C_52
REMARK   18  A    between atoms: C_52  and  C_53
REMARK   19  A    between atoms: C_53  and  C_54
REMARK   20  A    between atoms: C_54  and  C_55
REMARK                            x       y       z     vdW  Elec       q    Type
REMARK                         _______ _______ _______ _____ _____    ______ ____
ROOT
ATOM      1  C   UNL     1      34.773  -1.917  20.016  0.00  0.00    -0.024 A 
ATOM      2  C   UNL     1      35.095  -2.006  18.659  0.00  0.00    +0.000 A 
ATOM      3  C   UNL     1      34.351  -2.828  17.811  0.00  0.00    +0.074 A 
ATOM      4  C   UNL     1      33.314  -3.598  18.350  0.00  0.00    +0.008 A 
ATOM      5  C   UNL     1      33.008  -3.530  19.715  0.00  0.00    -0.049 A 
ATOM      6  C   UNL     1      31.942  -4.490  20.259  0.00  0.00    +0.058 C 
ATOM      7  C   UNL     1      32.027  -4.584  21.804  0.00  0.00    +0.017 C 
ATOM      8  C   UNL     1      31.979  -3.150  22.393  0.00  0.00    -0.011 C 
ATOM      9  C   UNL     1      31.631  -2.997  23.912  0.00  0.00    -0.066 C 
ATOM     10  C   UNL     1      31.340  -1.479  24.212  0.00  0.00    -0.024 C 
ATOM     11  C   UNL     1      30.016  -0.948  23.567  0.00  0.00    -0.096 C 
ATOM     12  C   UNL     1      32.546  -0.599  23.751  0.00  0.00    -0.079 C 
ATOM     13  C   UNL     1      32.987  -0.850  22.281  0.00  0.00    -0.004 C 
ATOM     14  C   UNL     1      33.255  -2.358  22.006  0.00  0.00    +0.028 C 
ATOM     15  C   UNL     1      33.677  -2.613  20.542  0.00  0.00    -0.049 A 
ENDROOT
BRANCH   3  16
ATOM     16  O   UNL     1      34.659  -2.866  16.448  0.00  0.00    -0.339 OA
ATOM     17  H   UNL     1      34.539  -2.038  15.997  0.00  0.00    +0.246 HD
ENDBRANCH   3  16
BRANCH  10  18
ATOM     18  C   UNL     1      31.118  -1.262  25.697  0.00  0.00    +0.266 C 
BRANCH  18  19
ATOM     19  O   UNL     1      31.388  -0.021  26.127  0.00  0.00    -0.261 OA
ATOM     20  H   UNL     1      30.991   0.664  25.600  0.00  0.00    +0.320 HD
ENDBRANCH  18  19
ENDBRANCH  10  18
BRANCH   9  21
ATOM     21  C   UNL     1      32.663  -3.580  24.946  0.00  0.00    -0.012 C 
BRANCH  21  22
ATOM     22  C   UNL     1      32.181  -3.763  26.413  0.00  0.00    +0.010 C 
BRANCH  22  23
ATOM     23  C   UNL     1      33.356  -3.684  27.427  0.00  0.00    +0.035 C 
BRANCH  23  24
ATOM     24  C   UNL     1      33.787  -2.253  27.640  0.00  0.00    -0.099 C 
BRANCH  24  25
ATOM     25  C   UNL     1      33.626  -1.666  29.022  0.00  0.00    +0.035 C 
BRANCH  25  26
ATOM     26  C   UNL     1      32.134  -1.397  29.356  0.00  0.00    +0.012 C 
BRANCH  26  27
ATOM     27  C   UNL     1      31.913   0.067  29.824  0.00  0.00    +0.002 C 
BRANCH  27  28
ATOM     28  C   UNL     1      30.567   0.629  29.292  0.00  0.00    +0.000 C 
BRANCH  28  29
ATOM     29  C   UNL     1      30.741   2.053  28.694  0.00  0.00    +0.000 C 
BRANCH  29  30
ATOM     30  C   UNL     1      29.593   2.389  27.703  0.00  0.00    -0.000 C 
BRANCH  30  31
ATOM     31  C   UNL     1      28.288   1.628  28.062  0.00  0.00    -0.000 C 
BRANCH  31  32
ATOM     32  C   UNL     1      27.848   0.692  26.903  0.00  0.00    -0.000 C 
BRANCH  32  33
ATOM     33  C   UNL     1      27.493  -0.729  27.421  0.00  0.00    -0.000 C 
BRANCH  33  34
ATOM     34  C   UNL     1      27.506  -1.767  26.266  0.00  0.00    -0.000 C 
BRANCH  34  35
ATOM     35  C   UNL     1      28.289  -3.048  26.665  0.00  0.00    -0.003 C 
ATOM     36  C   UNL     1      28.898  -2.913  28.085  0.00  0.00    +0.004 C 
ENDBRANCH  34  35
ENDBRANCH  33  34
ENDBRANCH  32  33
ENDBRANCH  31  32
ENDBRANCH  30  31
ENDBRANCH  29  30
ENDBRANCH  28  29
ENDBRANCH  27  28
ENDBRANCH  26  27
ENDBRANCH  25  26
ENDBRANCH  24  25
ENDBRANCH  23  24
ENDBRANCH  22  23
ENDBRANCH  21  22
ENDBRANCH   9  21
TORSDOF 18
ENDMDL
MODEL 14
REMARK VINA RESULT:    -3.790      3.074     10.224
REMARK INTER + INTRA:          -8.555
REMARK INTER:                  -9.058
REMARK INTRA:                   0.503
REMARK UNBOUND:                -0.999
REMARK  Name = 116
REMARK  20 active torsions:
REMARK  status: ('A' for Active; 'I' for Inactive)
REMARK    1  A    between atoms: C_3  and  O_4
REMARK    2  A    between atoms: C_5  and  C_17
REMARK    3  A    between atoms: C_5  and  C_59
REMARK    4  A    between atoms: C_15  and  C_20
REMARK    5  A    between atoms: C_15  and  C_23
REMARK    6  A    between atoms: C_16  and  C_17
REMARK    7  A    between atoms: C_23  and  O_25
REMARK    8  A    between atoms: C_27  and  C_28
REMARK    9  A    between atoms: C_27  and  C_59
REMARK   10  A    between atoms: C_28  and  C_30
REMARK   11  A    between atoms: C_30  and  C_32
REMARK   12  A    between atoms: C_32  and  C_47
REMARK   13  A    between atoms: C_47  and  C_48
REMARK   14  A    between atoms: C_48  and  C_49
REMARK   15  A    between atoms: C_49  and  C_50
REMARK   16  A    between atoms: C_50  and  C_51
REMARK   17  A    between atoms: C_51  and  C_52
REMARK   18  A    between atoms: C_52  and  C_53
REMARK   19  A    between atoms: C_53  and  C_54
REMARK   20  A    between atoms: C_54  and  C_55
REMARK                            x       y       z     vdW  Elec       q    Type
REMARK                         _______ _______ _______ _____ _____    ______ ____
ROOT
ATOM      1  C   UNL     1      34.194  -1.134  16.705  0.00  0.00    -0.024 A 
ATOM      2  C   UNL     1      34.947  -0.813  15.572  0.00  0.00    +0.000 A 
ATOM      3  C   UNL     1      36.338  -0.912  15.600  0.00  0.00    +0.074 A 
ATOM      4  C   UNL     1      36.968  -1.286  16.793  0.00  0.00    +0.008 A 
ATOM      5  C   UNL     1      36.216  -1.581  17.936  0.00  0.00    -0.049 A 
ATOM      6  C   UNL     1      36.975  -1.865  19.239  0.00  0.00    +0.058 C 
ATOM      7  C   UNL     1      36.027  -1.752  20.460  0.00  0.00    +0.017 C 
ATOM      8  C   UNL     1      34.788  -2.652  20.214  0.00  0.00    -0.011 C 
ATOM      9  C   UNL     1      33.907  -3.032  21.451  0.00  0.00    -0.066 C 
ATOM     10  C   UNL     1      32.910  -4.176  21.027  0.00  0.00    -0.024 C 
ATOM     11  C   UNL     1      33.605  -5.550  20.745  0.00  0.00    -0.096 C 
ATOM     12  C   UNL     1      32.083  -3.732  19.778  0.00  0.00    -0.079 C 
ATOM     13  C   UNL     1      32.952  -3.218  18.594  0.00  0.00    -0.004 C 
ATOM     14  C   UNL     1      33.937  -2.100  19.041  0.00  0.00    +0.028 C 
ATOM     15  C   UNL     1      34.813  -1.599  17.871  0.00  0.00    -0.049 A 
ENDROOT
BRANCH   3  16
ATOM     16  O   UNL     1      37.070  -0.633  14.442  0.00  0.00    -0.339 OA
ATOM     17  H   UNL     1      37.901  -1.090  14.384  0.00  0.00    +0.246 HD
ENDBRANCH   3  16
BRANCH  10  18
ATOM     18  C   UNL     1      31.951  -4.494  22.158  0.00  0.00    +0.266 C 
BRANCH  18  19
ATOM     19  O   UNL     1      32.539  -4.879  23.299  0.00  0.00    -0.261 OA
ATOM     20  H   UNL     1      33.479  -5.007  23.224  0.00  0.00    +0.320 HD
ENDBRANCH  18  19
ENDBRANCH  10  18
BRANCH   9  21
ATOM     21  C   UNL     1      33.138  -1.864  22.170  0.00  0.00    -0.012 C 
BRANCH  21  22
ATOM     22  C   UNL     1      31.866  -2.237  22.982  0.00  0.00    +0.010 C 
BRANCH  22  23
ATOM     23  C   UNL     1      30.913  -1.023  23.165  0.00  0.00    +0.035 C 
BRANCH  23  24
ATOM     24  C   UNL     1      30.297  -1.027  24.543  0.00  0.00    -0.099 C 
BRANCH  24  25
ATOM     25  C   UNL     1      31.139  -1.533  25.690  0.00  0.00    +0.035 C 
BRANCH  25  26
ATOM     26  C   UNL     1      32.185  -0.478  26.138  0.00  0.00    +0.012 C 
BRANCH  26  27
ATOM     27  C   UNL     1      33.629  -1.044  26.063  0.00  0.00    +0.002 C 
BRANCH  27  28
ATOM     28  C   UNL     1      34.631  -0.131  26.819  0.00  0.00    +0.000 C 
BRANCH  28  29
ATOM     29  C   UNL     1      35.392  -0.912  27.926  0.00  0.00    +0.000 C 
BRANCH  29  30
ATOM     30  C   UNL     1      34.710  -0.730  29.310  0.00  0.00    -0.000 C 
BRANCH  30  31
ATOM     31  C   UNL     1      33.704  -1.875  29.605  0.00  0.00    -0.000 C 
BRANCH  31  32
ATOM     32  C   UNL     1      32.257  -1.466  29.213  0.00  0.00    -0.000 C 
BRANCH  32  33
ATOM     33  C   UNL     1      31.736  -0.301  30.098  0.00  0.00    -0.000 C 
BRANCH  33  34
ATOM     34  C   UNL     1      31.606   1.012  29.278  0.00  0.00    -0.000 C 
BRANCH  34  35
ATOM     35  C   UNL     1      32.889   1.879  29.392  0.00  0.00    -0.003 C 
ATOM     36  C   UNL     1      33.220   2.572  28.044  0.00  0.00    +0.004 C 
ENDBRANCH  34  35
ENDBRANCH  33  34
ENDBRANCH  32  33
ENDBRANCH  31  32
ENDBRANCH  30  31
ENDBRANCH  29  30
ENDBRANCH  28  29
ENDBRANCH  27  28
ENDBRANCH  26  27
ENDBRANCH  25  26
ENDBRANCH  24  25
ENDBRANCH  23  24
ENDBRANCH  22  23
ENDBRANCH  21  22
ENDBRANCH   9  21
TORSDOF 18
ENDMDL
MODEL 15
REMARK VINA RESULT:    -2.900      2.857      9.183
REMARK INTER + INTRA:          -6.780
REMARK INTER:                  -6.589
REMARK INTRA:                  -0.191
REMARK UNBOUND:                -0.999
REMARK  Name = 116
REMARK  20 active torsions:
REMARK  status: ('A' for Active; 'I' for Inactive)
REMARK    1  A    between atoms: C_3  and  O_4
REMARK    2  A    between atoms: C_5  and  C_17
REMARK    3  A    between atoms: C_5  and  C_59
REMARK    4  A    between atoms: C_15  and  C_20
REMARK    5  A    between atoms: C_15  and  C_23
REMARK    6  A    between atoms: C_16  and  C_17
REMARK    7  A    between atoms: C_23  and  O_25
REMARK    8  A    between atoms: C_27  and  C_28
REMARK    9  A    between atoms: C_27  and  C_59
REMARK   10  A    between atoms: C_28  and  C_30
REMARK   11  A    between atoms: C_30  and  C_32
REMARK   12  A    between atoms: C_32  and  C_47
REMARK   13  A    between atoms: C_47  and  C_48
REMARK   14  A    between atoms: C_48  and  C_49
REMARK   15  A    between atoms: C_49  and  C_50
REMARK   16  A    between atoms: C_50  and  C_51
REMARK   17  A    between atoms: C_51  and  C_52
REMARK   18  A    between atoms: C_52  and  C_53
REMARK   19  A    between atoms: C_53  and  C_54
REMARK   20  A    between atoms: C_54  and  C_55
REMARK                            x       y       z     vdW  Elec       q    Type
REMARK                         _______ _______ _______ _____ _____    ______ ____
ROOT
ATOM      1  C   UNL     1      34.427  -2.702  18.858  0.00  0.00    -0.024 A 
ATOM      2  C   UNL     1      34.515  -2.797  17.466  0.00  0.00    +0.000 A 
ATOM      3  C   UNL     1      33.423  -3.246  16.722  0.00  0.00    +0.074 A 
ATOM      4  C   UNL     1      32.262  -3.647  17.393  0.00  0.00    +0.008 A 
ATOM      5  C   UNL     1      32.184  -3.578  18.789  0.00  0.00    -0.049 A 
ATOM      6  C   UNL     1      30.929  -4.147  19.465  0.00  0.00    +0.058 C 
ATOM      7  C   UNL     1      31.180  -4.377  20.977  0.00  0.00    +0.017 C 
ATOM      8  C   UNL     1      31.719  -3.062  21.599  0.00  0.00    -0.011 C 
ATOM      9  C   UNL     1      31.652  -2.911  23.156  0.00  0.00    -0.066 C 
ATOM     10  C   UNL     1      31.957  -1.411  23.529  0.00  0.00    -0.024 C 
ATOM     11  C   UNL     1      30.833  -0.409  23.101  0.00  0.00    -0.096 C 
ATOM     12  C   UNL     1      33.324  -0.972  22.912  0.00  0.00    -0.079 C 
ATOM     13  C   UNL     1      33.450  -1.252  21.388  0.00  0.00    -0.004 C 
ATOM     14  C   UNL     1      33.129  -2.734  21.043  0.00  0.00    +0.028 C 
ATOM     15  C   UNL     1      33.236  -3.012  19.527  0.00  0.00    -0.049 A 
ENDROOT
BRANCH   3  16
ATOM     16  O   UNL     1      33.515  -3.288  15.328  0.00  0.00    -0.339 OA
ATOM     17  H   UNL     1      32.871  -2.754  14.877  0.00  0.00    +0.246 HD
ENDBRANCH   3  16
BRANCH  10  18
ATOM     18  C   UNL     1      32.025  -1.240  25.035  0.00  0.00    +0.266 C 
BRANCH  18  19
ATOM     19  O   UNL     1      32.911  -0.324  25.454  0.00  0.00    -0.261 OA
ATOM     20  H   UNL     1      33.230   0.247  24.764  0.00  0.00    +0.320 HD
ENDBRANCH  18  19
ENDBRANCH  10  18
BRANCH   9  21
ATOM     21  C   UNL     1      32.539  -3.888  24.010  0.00  0.00    -0.012 C 
BRANCH  21  22
ATOM     22  C   UNL     1      32.062  -4.209  25.455  0.00  0.00    +0.010 C 
BRANCH  22  23
ATOM     23  C   UNL     1      33.247  -4.280  26.458  0.00  0.00    +0.035 C 
BRANCH  23  24
ATOM     24  C   UNL     1      33.424  -2.964  27.175  0.00  0.00    -0.099 C 
BRANCH  24  25
ATOM     25  C   UNL     1      32.274  -2.457  28.012  0.00  0.00    +0.035 C 
BRANCH  25  26
ATOM     26  C   UNL     1      32.775  -1.716  29.281  0.00  0.00    +0.012 C 
BRANCH  26  27
ATOM     27  C   UNL     1      34.326  -1.657  29.327  0.00  0.00    +0.002 C 
BRANCH  27  28
ATOM     28  C   UNL     1      34.864  -0.414  28.568  0.00  0.00    +0.000 C 
BRANCH  28  29
ATOM     29  C   UNL     1      35.390   0.669  29.550  0.00  0.00    +0.000 C 
BRANCH  29  30
ATOM     30  C   UNL     1      35.187   2.097  28.971  0.00  0.00    -0.000 C 
BRANCH  30  31
ATOM     31  C   UNL     1      34.307   2.074  27.692  0.00  0.00    -0.000 C 
BRANCH  31  32
ATOM     32  C   UNL     1      32.838   2.466  28.015  0.00  0.00    -0.000 C 
BRANCH  32  33
ATOM     33  C   UNL     1      31.831   1.464  27.387  0.00  0.00    -0.000 C 
BRANCH  33  34
ATOM     34  C   UNL     1      30.365   1.936  27.597  0.00  0.00    -0.000 C 
BRANCH  34  35
ATOM     35  C   UNL     1      29.676   1.146  28.743  0.00  0.00    -0.003 C 
ATOM     36  C   UNL     1      30.561   1.117  30.017  0.00  0.00    +0.004 C 
ENDBRANCH  34  35
ENDBRANCH  33  34
ENDBRANCH  32  33
ENDBRANCH  31  32
ENDBRANCH  30  31
ENDBRANCH  29  30
ENDBRANCH  28  29
ENDBRANCH  27  28
ENDBRANCH  26  27
ENDBRANCH  25  26
ENDBRANCH  24  25
ENDBRANCH  23  24
ENDBRANCH  22  23
ENDBRANCH  21  22
ENDBRANCH   9  21
TORSDOF 18
ENDMDL
MODEL 16
REMARK VINA RESULT:    -2.781      3.428      9.692
REMARK INTER + INTRA:          -6.544
REMARK INTER:                  -5.548
REMARK INTRA:                  -0.996
REMARK UNBOUND:                -0.999
REMARK  Name = 116
REMARK  20 active torsions:
REMARK  status: ('A' for Active; 'I' for Inactive)
REMARK    1  A    between atoms: C_3  and  O_4
REMARK    2  A    between atoms: C_5  and  C_17
REMARK    3  A    between atoms: C_5  and  C_59
REMARK    4  A    between atoms: C_15  and  C_20
REMARK    5  A    between atoms: C_15  and  C_23
REMARK    6  A    between atoms: C_16  and  C_17
REMARK    7  A    between atoms: C_23  and  O_25
REMARK    8  A    between atoms: C_27  and  C_28
REMARK    9  A    between atoms: C_27  and  C_59
REMARK   10  A    between atoms: C_28  and  C_30
REMARK   11  A    between atoms: C_30  and  C_32
REMARK   12  A    between atoms: C_32  and  C_47
REMARK   13  A    between atoms: C_47  and  C_48
REMARK   14  A    between atoms: C_48  and  C_49
REMARK   15  A    between atoms: C_49  and  C_50
REMARK   16  A    between atoms: C_50  and  C_51
REMARK   17  A    between atoms: C_51  and  C_52
REMARK   18  A    between atoms: C_52  and  C_53
REMARK   19  A    between atoms: C_53  and  C_54
REMARK   20  A    between atoms: C_54  and  C_55
REMARK                            x       y       z     vdW  Elec       q    Type
REMARK                         _______ _______ _______ _____ _____    ______ ____
ROOT
ATOM      1  C   UNL     1      33.787  -4.571  20.202  0.00  0.00    -0.024 A 
ATOM      2  C   UNL     1      32.974  -5.215  21.139  0.00  0.00    +0.000 A 
ATOM      3  C   UNL     1      31.587  -5.070  21.084  0.00  0.00    +0.074 A 
ATOM      4  C   UNL     1      31.030  -4.231  20.112  0.00  0.00    +0.008 A 
ATOM      5  C   UNL     1      31.846  -3.565  19.190  0.00  0.00    -0.049 A 
ATOM      6  C   UNL     1      31.180  -2.568  18.233  0.00  0.00    +0.058 C 
ATOM      7  C   UNL     1      32.237  -1.632  17.594  0.00  0.00    +0.017 C 
ATOM      8  C   UNL     1      33.355  -2.501  16.962  0.00  0.00    -0.011 C 
ATOM      9  C   UNL     1      34.299  -1.823  15.913  0.00  0.00    -0.066 C 
ATOM     10  C   UNL     1      35.137  -2.945  15.190  0.00  0.00    -0.024 C 
ATOM     11  C   UNL     1      34.288  -3.864  14.250  0.00  0.00    -0.096 C 
ATOM     12  C   UNL     1      35.892  -3.815  16.246  0.00  0.00    -0.079 C 
ATOM     13  C   UNL     1      34.978  -4.375  17.373  0.00  0.00    -0.004 C 
ATOM     14  C   UNL     1      34.150  -3.252  18.061  0.00  0.00    +0.028 C 
ATOM     15  C   UNL     1      33.229  -3.807  19.170  0.00  0.00    -0.049 A 
ENDROOT
BRANCH   3  16
ATOM     16  O   UNL     1      30.789  -5.760  22.001  0.00  0.00    -0.339 OA
ATOM     17  H   UNL     1      30.167  -6.359  21.604  0.00  0.00    +0.246 HD
ENDBRANCH   3  16
BRANCH  10  18
ATOM     18  C   UNL     1      36.156  -2.328  14.251  0.00  0.00    +0.266 C 
BRANCH  18  19
ATOM     19  O   UNL     1      37.371  -2.891  14.296  0.00  0.00    -0.261 OA
ATOM     20  H   UNL     1      37.383  -3.803  14.024  0.00  0.00    +0.320 HD
ENDBRANCH  18  19
ENDBRANCH  10  18
BRANCH   9  21
ATOM     21  C   UNL     1      35.239  -0.674  16.431  0.00  0.00    -0.012 C 
BRANCH  21  22
ATOM     22  C   UNL     1      36.268  -1.036  17.539  0.00  0.00    +0.010 C 
BRANCH  22  23
ATOM     23  C   UNL     1      36.495   0.139  18.531  0.00  0.00    +0.035 C 
BRANCH  23  24
ATOM     24  C   UNL     1      35.579   0.018  19.725  0.00  0.00    -0.099 C 
BRANCH  24  25
ATOM     25  C   UNL     1      35.138  -1.366  20.137  0.00  0.00    +0.035 C 
BRANCH  25  26
ATOM     26  C   UNL     1      33.811  -1.326  20.941  0.00  0.00    +0.012 C 
BRANCH  26  27
ATOM     27  C   UNL     1      33.960  -2.032  22.316  0.00  0.00    +0.002 C 
BRANCH  27  28
ATOM     28  C   UNL     1      32.621  -2.019  23.102  0.00  0.00    +0.000 C 
BRANCH  28  29
ATOM     29  C   UNL     1      32.553  -3.182  24.130  0.00  0.00    +0.000 C 
BRANCH  29  30
ATOM     30  C   UNL     1      31.830  -2.738  25.432  0.00  0.00    -0.000 C 
BRANCH  30  31
ATOM     31  C   UNL     1      32.823  -2.601  26.617  0.00  0.00    -0.000 C 
BRANCH  31  32
ATOM     32  C   UNL     1      32.779  -1.171  27.223  0.00  0.00    -0.000 C 
BRANCH  32  33
ATOM     33  C   UNL     1      33.176  -0.096  26.174  0.00  0.00    -0.000 C 
BRANCH  33  34
ATOM     34  C   UNL     1      34.224   0.894  26.753  0.00  0.00    -0.000 C 
BRANCH  34  35
ATOM     35  C   UNL     1      33.562   2.230  27.185  0.00  0.00    -0.003 C 
ATOM     36  C   UNL     1      32.559   2.009  28.348  0.00  0.00    +0.004 C 
ENDBRANCH  34  35
ENDBRANCH  33  34
ENDBRANCH  32  33
ENDBRANCH  31  32
ENDBRANCH  30  31
ENDBRANCH  29  30
ENDBRANCH  28  29
ENDBRANCH  27  28
ENDBRANCH  26  27
ENDBRANCH  25  26
ENDBRANCH  24  25
ENDBRANCH  23  24
ENDBRANCH  22  23
ENDBRANCH  21  22
ENDBRANCH   9  21
TORSDOF 18
ENDMDL
MODEL 17
REMARK VINA RESULT:    -2.326      3.256     10.041
REMARK INTER + INTRA:          -5.636
REMARK INTER:                  -6.646
REMARK INTRA:                   1.010
REMARK UNBOUND:                -0.999
REMARK  Name = 116
REMARK  20 active torsions:
REMARK  status: ('A' for Active; 'I' for Inactive)
REMARK    1  A    between atoms: C_3  and  O_4
REMARK    2  A    between atoms: C_5  and  C_17
REMARK    3  A    between atoms: C_5  and  C_59
REMARK    4  A    between atoms: C_15  and  C_20
REMARK    5  A    between atoms: C_15  and  C_23
REMARK    6  A    between atoms: C_16  and  C_17
REMARK    7  A    between atoms: C_23  and  O_25
REMARK    8  A    between atoms: C_27  and  C_28
REMARK    9  A    between atoms: C_27  and  C_59
REMARK   10  A    between atoms: C_28  and  C_30
REMARK   11  A    between atoms: C_30  and  C_32
REMARK   12  A    between atoms: C_32  and  C_47
REMARK   13  A    between atoms: C_47  and  C_48
REMARK   14  A    between atoms: C_48  and  C_49
REMARK   15  A    between atoms: C_49  and  C_50
REMARK   16  A    between atoms: C_50  and  C_51
REMARK   17  A    between atoms: C_51  and  C_52
REMARK   18  A    between atoms: C_52  and  C_53
REMARK   19  A    between atoms: C_53  and  C_54
REMARK   20  A    between atoms: C_54  and  C_55
REMARK                            x       y       z     vdW  Elec       q    Type
REMARK                         _______ _______ _______ _____ _____    ______ ____
ROOT
ATOM      1  C   UNL     1      33.872  -4.606  20.195  0.00  0.00    -0.024 A 
ATOM      2  C   UNL     1      33.101  -5.307  21.125  0.00  0.00    +0.000 A 
ATOM      3  C   UNL     1      31.708  -5.237  21.080  0.00  0.00    +0.074 A 
ATOM      4  C   UNL     1      31.100  -4.415  20.124  0.00  0.00    +0.008 A 
ATOM      5  C   UNL     1      31.873  -3.691  19.209  0.00  0.00    -0.049 A 
ATOM      6  C   UNL     1      31.148  -2.717  18.271  0.00  0.00    +0.058 C 
ATOM      7  C   UNL     1      32.149  -1.714  17.642  0.00  0.00    +0.017 C 
ATOM      8  C   UNL     1      33.308  -2.511  16.990  0.00  0.00    -0.011 C 
ATOM      9  C   UNL     1      34.209  -1.766  15.947  0.00  0.00    -0.066 C 
ATOM     10  C   UNL     1      35.102  -2.829  15.203  0.00  0.00    -0.024 C 
ATOM     11  C   UNL     1      34.298  -3.779  14.253  0.00  0.00    -0.096 C 
ATOM     12  C   UNL     1      35.909  -3.674  16.241  0.00  0.00    -0.079 C 
ATOM     13  C   UNL     1      35.034  -4.301  17.363  0.00  0.00    -0.004 C 
ATOM     14  C   UNL     1      34.150  -3.235  18.073  0.00  0.00    +0.028 C 
ATOM     15  C   UNL     1      33.267  -3.857  19.178  0.00  0.00    -0.049 A 
ENDROOT
BRANCH   3  16
ATOM     16  O   UNL     1      30.954  -5.985  21.989  0.00  0.00    -0.339 OA
ATOM     17  H   UNL     1      30.057  -5.688  22.090  0.00  0.00    +0.246 HD
ENDBRANCH   3  16
BRANCH  10  18
ATOM     18  C   UNL     1      36.080  -2.143  14.269  0.00  0.00    +0.266 C 
BRANCH  18  19
ATOM     19  O   UNL     1      37.333  -2.615  14.326  0.00  0.00    -0.261 OA
ATOM     20  H   UNL     1      37.432  -3.491  13.968  0.00  0.00    +0.320 HD
ENDBRANCH  18  19
ENDBRANCH  10  18
BRANCH   9  21
ATOM     21  C   UNL     1      35.087  -0.576  16.479  0.00  0.00    -0.012 C 
BRANCH  21  22
ATOM     22  C   UNL     1      36.305  -0.931  17.379  0.00  0.00    +0.010 C 
BRANCH  22  23
ATOM     23  C   UNL     1      36.604   0.181  18.422  0.00  0.00    +0.035 C 
BRANCH  23  24
ATOM     24  C   UNL     1      35.739   0.015  19.648  0.00  0.00    -0.099 C 
BRANCH  24  25
ATOM     25  C   UNL     1      35.643  -1.362  20.262  0.00  0.00    +0.035 C 
BRANCH  25  26
ATOM     26  C   UNL     1      34.173  -1.742  20.581  0.00  0.00    +0.012 C 
BRANCH  26  27
ATOM     27  C   UNL     1      33.831  -1.480  22.073  0.00  0.00    +0.002 C 
BRANCH  27  28
ATOM     28  C   UNL     1      32.938  -2.611  22.651  0.00  0.00    +0.000 C 
BRANCH  28  29
ATOM     29  C   UNL     1      32.275  -2.184  23.990  0.00  0.00    +0.000 C 
BRANCH  29  30
ATOM     30  C   UNL     1      31.328  -0.969  23.786  0.00  0.00    -0.000 C 
BRANCH  30  31
ATOM     31  C   UNL     1      30.936  -0.318  25.139  0.00  0.00    -0.000 C 
BRANCH  31  32
ATOM     32  C   UNL     1      29.563  -0.846  25.639  0.00  0.00    -0.000 C 
BRANCH  32  33
ATOM     33  C   UNL     1      29.618  -1.240  27.141  0.00  0.00    -0.000 C 
BRANCH  33  34
ATOM     34  C   UNL     1      28.228  -1.074  27.815  0.00  0.00    -0.000 C 
BRANCH  34  35
ATOM     35  C   UNL     1      27.111  -0.846  26.760  0.00  0.00    -0.003 C 
ATOM     36  C   UNL     1      25.728  -0.666  27.437  0.00  0.00    +0.004 C 
ENDBRANCH  34  35
ENDBRANCH  33  34
ENDBRANCH  32  33
ENDBRANCH  31  32
ENDBRANCH  30  31
ENDBRANCH  29  30
ENDBRANCH  28  29
ENDBRANCH  27  28
ENDBRANCH  26  27
ENDBRANCH  25  26
ENDBRANCH  24  25
ENDBRANCH  23  24
ENDBRANCH  22  23
ENDBRANCH  21  22
ENDBRANCH   9  21
TORSDOF 18
ENDMDL
MODEL 18
REMARK VINA RESULT:     0.351      1.977      2.790
REMARK INTER + INTRA:          -0.298
REMARK INTER:                   0.700
REMARK INTRA:                  -0.999
REMARK UNBOUND:                -0.999
REMARK  Name = 116
REMARK  20 active torsions:
REMARK  status: ('A' for Active; 'I' for Inactive)
REMARK    1  A    between atoms: C_3  and  O_4
REMARK    2  A    between atoms: C_5  and  C_17
REMARK    3  A    between atoms: C_5  and  C_59
REMARK    4  A    between atoms: C_15  and  C_20
REMARK    5  A    between atoms: C_15  and  C_23
REMARK    6  A    between atoms: C_16  and  C_17
REMARK    7  A    between atoms: C_23  and  O_25
REMARK    8  A    between atoms: C_27  and  C_28
REMARK    9  A    between atoms: C_27  and  C_59
REMARK   10  A    between atoms: C_28  and  C_30
REMARK   11  A    between atoms: C_30  and  C_32
REMARK   12  A    between atoms: C_32  and  C_47
REMARK   13  A    between atoms: C_47  and  C_48
REMARK   14  A    between atoms: C_48  and  C_49
REMARK   15  A    between atoms: C_49  and  C_50
REMARK   16  A    between atoms: C_50  and  C_51
REMARK   17  A    between atoms: C_51  and  C_52
REMARK   18  A    between atoms: C_52  and  C_53
REMARK   19  A    between atoms: C_53  and  C_54
REMARK   20  A    between atoms: C_54  and  C_55
REMARK                            x       y       z     vdW  Elec       q    Type
REMARK                         _______ _______ _______ _____ _____    ______ ____
ROOT
ATOM      1  C   UNL     1      29.690   2.820  28.416  0.00  0.00    -0.024 A 
ATOM      2  C   UNL     1      28.557   3.583  28.713  0.00  0.00    +0.000 A 
ATOM      3  C   UNL     1      27.293   2.992  28.715  0.00  0.00    +0.074 A 
ATOM      4  C   UNL     1      27.173   1.642  28.366  0.00  0.00    +0.008 A 
ATOM      5  C   UNL     1      28.305   0.885  28.042  0.00  0.00    -0.049 A 
ATOM      6  C   UNL     1      28.088  -0.553  27.551  0.00  0.00    +0.058 C 
ATOM      7  C   UNL     1      29.362  -1.089  26.850  0.00  0.00    +0.017 C 
ATOM      8  C   UNL     1      30.572  -0.897  27.800  0.00  0.00    -0.011 C 
ATOM      9  C   UNL     1      31.870  -1.722  27.504  0.00  0.00    -0.066 C 
ATOM     10  C   UNL     1      32.834  -1.606  28.745  0.00  0.00    -0.024 C 
ATOM     11  C   UNL     1      32.316  -2.347  30.022  0.00  0.00    -0.096 C 
ATOM     12  C   UNL     1      33.106  -0.103  29.075  0.00  0.00    -0.079 C 
ATOM     13  C   UNL     1      31.817   0.753  29.230  0.00  0.00    -0.004 C 
ATOM     14  C   UNL     1      30.875   0.611  28.000  0.00  0.00    +0.028 C 
ATOM     15  C   UNL     1      29.586   1.448  28.158  0.00  0.00    -0.049 A 
ENDROOT
BRANCH   3  16
ATOM     16  O   UNL     1      26.178   3.761  29.062  0.00  0.00    -0.339 OA
ATOM     17  H   UNL     1      25.354   3.432  28.720  0.00  0.00    +0.246 HD
ENDBRANCH   3  16
BRANCH  10  18
ATOM     18  C   UNL     1      34.157  -2.288  28.456  0.00  0.00    +0.266 C 
BRANCH  18  19
ATOM     19  O   UNL     1      35.138  -1.463  28.063  0.00  0.00    -0.261 OA
ATOM     20  H   UNL     1      35.629  -1.778  27.312  0.00  0.00    +0.320 HD
ENDBRANCH  18  19
ENDBRANCH  10  18
BRANCH   9  21
ATOM     21  C   UNL     1      32.637  -1.398  26.171  0.00  0.00    -0.012 C 
BRANCH  21  22
ATOM     22  C   UNL     1      31.806  -0.824  24.988  0.00  0.00    +0.010 C 
BRANCH  22  23
ATOM     23  C   UNL     1      32.711  -0.319  23.830  0.00  0.00    +0.035 C 
BRANCH  23  24
ATOM     24  C   UNL     1      32.370  -1.020  22.537  0.00  0.00    -0.099 C 
BRANCH  24  25
ATOM     25  C   UNL     1      32.765  -2.471  22.398  0.00  0.00    +0.035 C 
BRANCH  25  26
ATOM     26  C   UNL     1      31.555  -3.355  21.993  0.00  0.00    +0.012 C 
BRANCH  26  27
ATOM     27  C   UNL     1      32.005  -4.579  21.150  0.00  0.00    +0.002 C 
BRANCH  27  28
ATOM     28  C   UNL     1      33.514  -4.493  20.795  0.00  0.00    +0.000 C 
BRANCH  28  29
ATOM     29  C   UNL     1      33.756  -4.718  19.277  0.00  0.00    +0.000 C 
BRANCH  29  30
ATOM     30  C   UNL     1      33.694  -3.377  18.494  0.00  0.00    -0.000 C 
BRANCH  30  31
ATOM     31  C   UNL     1      34.250  -2.198  19.337  0.00  0.00    -0.000 C 
BRANCH  31  32
ATOM     32  C   UNL     1      35.614  -1.705  18.781  0.00  0.00    -0.000 C 
BRANCH  32  33
ATOM     33  C   UNL     1      35.638  -0.161  18.618  0.00  0.00    -0.000 C 
BRANCH  33  34
ATOM     34  C   UNL     1      34.855   0.283  17.351  0.00  0.00    -0.000 C 
BRANCH  34  35
ATOM     35  C   UNL     1      35.582   1.441  16.614  0.00  0.00    -0.003 C 
ATOM     36  C   UNL     1      35.346   2.797  17.329  0.00  0.00    +0.004 C 
ENDBRANCH  34  35
ENDBRANCH  33  34
ENDBRANCH  32  33
ENDBRANCH  31  32
ENDBRANCH  30  31
ENDBRANCH  29  30
ENDBRANCH  28  29
ENDBRANCH  27  28
ENDBRANCH  26  27
ENDBRANCH  25  26
ENDBRANCH  24  25
ENDBRANCH  23  24
ENDBRANCH  22  23
ENDBRANCH  21  22
ENDBRANCH   9  21
TORSDOF 18
ENDMDL
MODEL 19
REMARK VINA RESULT:     0.635      3.110      9.830
REMARK INTER + INTRA:           0.266
REMARK INTER:                   1.175
REMARK INTRA:                  -0.908
REMARK UNBOUND:                -0.999
REMARK  Name = 116
REMARK  20 active torsions:
REMARK  status: ('A' for Active; 'I' for Inactive)
REMARK    1  A    between atoms: C_3  and  O_4
REMARK    2  A    between atoms: C_5  and  C_17
REMARK    3  A    between atoms: C_5  and  C_59
REMARK    4  A    between atoms: C_15  and  C_20
REMARK    5  A    between atoms: C_15  and  C_23
REMARK    6  A    between atoms: C_16  and  C_17
REMARK    7  A    between atoms: C_23  and  O_25
REMARK    8  A    between atoms: C_27  and  C_28
REMARK    9  A    between atoms: C_27  and  C_59
REMARK   10  A    between atoms: C_28  and  C_30
REMARK   11  A    between atoms: C_30  and  C_32
REMARK   12  A    between atoms: C_32  and  C_47
REMARK   13  A    between atoms: C_47  and  C_48
REMARK   14  A    between atoms: C_48  and  C_49
REMARK   15  A    between atoms: C_49  and  C_50
REMARK   16  A    between atoms: C_50  and  C_51
REMARK   17  A    between atoms: C_51  and  C_52
REMARK   18  A    between atoms: C_52  and  C_53
REMARK   19  A    between atoms: C_53  and  C_54
REMARK   20  A    between atoms: C_54  and  C_55
REMARK                            x       y       z     vdW  Elec       q    Type
REMARK                         _______ _______ _______ _____ _____    ______ ____
ROOT
ATOM      1  C   UNL     1      33.800  -3.010  20.942  0.00  0.00    -0.024 A 
ATOM      2  C   UNL     1      33.045  -3.962  21.634  0.00  0.00    +0.000 A 
ATOM      3  C   UNL     1      31.939  -4.559  21.028  0.00  0.00    +0.074 A 
ATOM      4  C   UNL     1      31.569  -4.153  19.741  0.00  0.00    +0.008 A 
ATOM      5  C   UNL     1      32.308  -3.180  19.058  0.00  0.00    -0.049 A 
ATOM      6  C   UNL     1      31.776  -2.695  17.703  0.00  0.00    +0.058 C 
ATOM      7  C   UNL     1      32.450  -1.361  17.295  0.00  0.00    +0.017 C 
ATOM      8  C   UNL     1      33.989  -1.537  17.369  0.00  0.00    -0.011 C 
ATOM      9  C   UNL     1      34.879  -0.490  16.618  0.00  0.00    -0.066 C 
ATOM     10  C   UNL     1      36.359  -1.029  16.570  0.00  0.00    -0.024 C 
ATOM     11  C   UNL     1      36.549  -2.276  15.644  0.00  0.00    -0.096 C 
ATOM     12  C   UNL     1      36.857  -1.358  18.014  0.00  0.00    -0.079 C 
ATOM     13  C   UNL     1      35.902  -2.287  18.817  0.00  0.00    -0.004 C 
ATOM     14  C   UNL     1      34.445  -1.741  18.837  0.00  0.00    +0.028 C 
ATOM     15  C   UNL     1      33.490  -2.669  19.620  0.00  0.00    -0.049 A 
ENDROOT
BRANCH   3  16
ATOM     16  O   UNL     1      31.227  -5.543  21.719  0.00  0.00    -0.339 OA
ATOM     17  H   UNL     1      30.483  -5.895  21.243  0.00  0.00    +0.246 HD
ENDBRANCH   3  16
BRANCH  10  18
ATOM     18  C   UNL     1      37.284   0.006  15.961  0.00  0.00    +0.266 C 
BRANCH  18  19
ATOM     19  O   UNL     1      38.499   0.071  16.523  0.00  0.00    -0.261 OA
ATOM     20  H   UNL     1      39.189  -0.316  15.996  0.00  0.00    +0.320 HD
ENDBRANCH  18  19
ENDBRANCH  10  18
BRANCH   9  21
ATOM     21  C   UNL     1      34.844   0.991  17.145  0.00  0.00    -0.012 C 
BRANCH  21  22
ATOM     22  C   UNL     1      35.677   1.319  18.416  0.00  0.00    +0.010 C 
BRANCH  22  23
ATOM     23  C   UNL     1      35.089   2.521  19.206  0.00  0.00    +0.035 C 
BRANCH  23  24
ATOM     24  C   UNL     1      35.034   2.217  20.684  0.00  0.00    -0.099 C 
BRANCH  24  25
ATOM     25  C   UNL     1      33.702   2.351  21.382  0.00  0.00    +0.035 C 
BRANCH  25  26
ATOM     26  C   UNL     1      33.690   1.593  22.736  0.00  0.00    +0.012 C 
BRANCH  26  27
ATOM     27  C   UNL     1      32.436   0.686  22.867  0.00  0.00    +0.002 C 
BRANCH  27  28
ATOM     28  C   UNL     1      32.581  -0.305  24.053  0.00  0.00    +0.000 C 
BRANCH  28  29
ATOM     29  C   UNL     1      32.948   0.432  25.370  0.00  0.00    +0.000 C 
BRANCH  29  30
ATOM     30  C   UNL     1      31.789   0.349  26.401  0.00  0.00    -0.000 C 
BRANCH  30  31
ATOM     31  C   UNL     1      30.830  -0.831  26.088  0.00  0.00    -0.000 C 
BRANCH  31  32
ATOM     32  C   UNL     1      29.557  -0.771  26.977  0.00  0.00    -0.000 C 
BRANCH  32  33
ATOM     33  C   UNL     1      28.966   0.664  27.030  0.00  0.00    -0.000 C 
BRANCH  33  34
ATOM     34  C   UNL     1      27.413   0.632  27.010  0.00  0.00    -0.000 C 
BRANCH  34  35
ATOM     35  C   UNL     1      26.880  -0.811  26.798  0.00  0.00    -0.003 C 
ATOM     36  C   UNL     1      26.101  -1.311  28.042  0.00  0.00    +0.004 C 
ENDBRANCH  34  35
ENDBRANCH  33  34
ENDBRANCH  32  33
ENDBRANCH  31  32
ENDBRANCH  30  31
ENDBRANCH  29  30
ENDBRANCH  28  29
ENDBRANCH  27  28
ENDBRANCH  26  27
ENDBRANCH  25  26
ENDBRANCH  24  25
ENDBRANCH  23  24
ENDBRANCH  22  23
ENDBRANCH  21  22
ENDBRANCH   9  21
TORSDOF 18
ENDMDL
MODEL 20
REMARK VINA RESULT:     0.759      3.346      9.374
REMARK INTER + INTRA:           0.515
REMARK INTER:                   1.918
REMARK INTRA:                  -1.403
REMARK UNBOUND:                -0.999
REMARK  Name = 116
REMARK  20 active torsions:
REMARK  status: ('A' for Active; 'I' for Inactive)
REMARK    1  A    between atoms: C_3  and  O_4
REMARK    2  A    between atoms: C_5  and  C_17
REMARK    3  A    between atoms: C_5  and  C_59
REMARK    4  A    between atoms: C_15  and  C_20
REMARK    5  A    between atoms: C_15  and  C_23
REMARK    6  A    between atoms: C_16  and  C_17
REMARK    7  A    between atoms: C_23  and  O_25
REMARK    8  A    between atoms: C_27  and  C_28
REMARK    9  A    between atoms: C_27  and  C_59
REMARK   10  A    between atoms: C_28  and  C_30
REMARK   11  A    between atoms: C_30  and  C_32
REMARK   12  A    between atoms: C_32  and  C_47
REMARK   13  A    between atoms: C_47  and  C_48
REMARK   14  A    between atoms: C_48  and  C_49
REMARK   15  A    between atoms: C_49  and  C_50
REMARK   16  A    between atoms: C_50  and  C_51
REMARK   17  A    between atoms: C_51  and  C_52
REMARK   18  A    between atoms: C_52  and  C_53
REMARK   19  A    between atoms: C_53  and  C_54
REMARK   20  A    between atoms: C_54  and  C_55
REMARK                            x       y       z     vdW  Elec       q    Type
REMARK                         _______ _______ _______ _____ _____    ______ ____
ROOT
ATOM      1  C   UNL     1      33.876  -3.096  20.853  0.00  0.00    -0.024 A 
ATOM      2  C   UNL     1      33.141  -4.043  21.572  0.00  0.00    +0.000 A 
ATOM      3  C   UNL     1      31.981  -4.594  21.027  0.00  0.00    +0.074 A 
ATOM      4  C   UNL     1      31.538  -4.147  19.776  0.00  0.00    +0.008 A 
ATOM      5  C   UNL     1      32.259  -3.178  19.068  0.00  0.00    -0.049 A 
ATOM      6  C   UNL     1      31.653  -2.646  17.763  0.00  0.00    +0.058 C 
ATOM      7  C   UNL     1      32.338  -1.321  17.342  0.00  0.00    +0.017 C 
ATOM      8  C   UNL     1      33.872  -1.541  17.309  0.00  0.00    -0.011 C 
ATOM      9  C   UNL     1      34.742  -0.502  16.525  0.00  0.00    -0.066 C 
ATOM     10  C   UNL     1      36.198  -1.080  16.366  0.00  0.00    -0.024 C 
ATOM     11  C   UNL     1      36.291  -2.309  15.401  0.00  0.00    -0.096 C 
ATOM     12  C   UNL     1      36.781  -1.458  17.766  0.00  0.00    -0.079 C 
ATOM     13  C   UNL     1      35.854  -2.379  18.610  0.00  0.00    -0.004 C 
ATOM     14  C   UNL     1      34.418  -1.794  18.739  0.00  0.00    +0.028 C 
ATOM     15  C   UNL     1      33.490  -2.715  19.562  0.00  0.00    -0.049 A 
ENDROOT
BRANCH   3  16
ATOM     16  O   UNL     1      31.287  -5.575  21.741  0.00  0.00    -0.339 OA
ATOM     17  H   UNL     1      30.355  -5.411  21.826  0.00  0.00    +0.246 HD
ENDBRANCH   3  16
BRANCH  10  18
ATOM     18  C   UNL     1      37.111  -0.056  15.720  0.00  0.00    +0.266 C 
BRANCH  18  19
ATOM     19  O   UNL     1      38.396  -0.137  16.094  0.00  0.00    -0.261 OA
ATOM     20  H   UNL     1      38.720  -1.029  16.168  0.00  0.00    +0.320 HD
ENDBRANCH  18  19
ENDBRANCH  10  18
BRANCH   9  21
ATOM     21  C   UNL     1      34.784   0.966  17.086  0.00  0.00    -0.012 C 
BRANCH  21  22
ATOM     22  C   UNL     1      35.586   1.209  18.396  0.00  0.00    +0.010 C 
BRANCH  22  23
ATOM     23  C   UNL     1      35.137   2.507  19.123  0.00  0.00    +0.035 C 
BRANCH  23  24
ATOM     24  C   UNL     1      35.255   2.352  20.620  0.00  0.00    -0.099 C 
BRANCH  24  25
ATOM     25  C   UNL     1      33.979   2.307  21.427  0.00  0.00    +0.035 C 
BRANCH  25  26
ATOM     26  C   UNL     1      33.524   0.848  21.693  0.00  0.00    +0.012 C 
BRANCH  26  27
ATOM     27  C   UNL     1      32.799   0.721  23.060  0.00  0.00    +0.002 C 
BRANCH  27  28
ATOM     28  C   UNL     1      32.221  -0.707  23.259  0.00  0.00    +0.000 C 
BRANCH  28  29
ATOM     29  C   UNL     1      31.605  -0.880  24.675  0.00  0.00    +0.000 C 
BRANCH  29  30
ATOM     30  C   UNL     1      32.393  -1.931  25.505  0.00  0.00    -0.000 C 
BRANCH  30  31
ATOM     31  C   UNL     1      32.032  -1.854  27.013  0.00  0.00    -0.000 C 
BRANCH  31  32
ATOM     32  C   UNL     1      33.167  -1.175  27.828  0.00  0.00    -0.000 C 
BRANCH  32  33
ATOM     33  C   UNL     1      34.317  -0.688  26.904  0.00  0.00    -0.000 C 
BRANCH  33  34
ATOM     34  C   UNL     1      34.351   0.863  26.820  0.00  0.00    -0.000 C 
BRANCH  34  35
ATOM     35  C   UNL     1      35.351   1.463  27.845  0.00  0.00    -0.003 C 
ATOM     36  C   UNL     1      34.671   1.701  29.219  0.00  0.00    +0.004 C 
ENDBRANCH  34  35
ENDBRANCH  33  34
ENDBRANCH  32  33
ENDBRANCH  31  32
ENDBRANCH  30  31
ENDBRANCH  29  30
ENDBRANCH  28  29
ENDBRANCH  27  28
ENDBRANCH  26  27
ENDBRANCH  25  26
ENDBRANCH  24  25
ENDBRANCH  23  24
ENDBRANCH  22  23
ENDBRANCH  21  22
ENDBRANCH   9  21
TORSDOF 18
ENDMDL
