MODEL 1
REMARK VINA RESULT:    -8.737      0.000      0.000
REMARK INTER + INTRA:         -16.781
REMARK INTER:                 -15.373
REMARK INTRA:                  -1.408
REMARK UNBOUND:                -1.405
REMARK  Name = 112
REMARK  16 active torsions:
REMARK  status: ('A' for Active; 'I' for Inactive)
REMARK    1  A    between atoms: C_3  and  O_4
REMARK    2  A    between atoms: C_5  and  C_17
REMARK    3  A    between atoms: C_5  and  C_56
REMARK    4  A    between atoms: C_15  and  C_20
REMARK    5  A    between atoms: C_15  and  C_23
REMARK    6  A    between atoms: C_16  and  C_17
REMARK    7  A    between atoms: C_23  and  O_25
REMARK    8  A    between atoms: C_27  and  C_28
REMARK    9  A    between atoms: C_27  and  C_56
REMARK   10  A    between atoms: C_28  and  C_30
REMARK   11  A    between atoms: C_30  and  C_32
REMARK   12  A    between atoms: C_32  and  C_47
REMARK   13  A    between atoms: C_47  and  C_48
REMARK   14  A    between atoms: C_48  and  C_49
REMARK   15  A    between atoms: C_49  and  C_50
REMARK   16  A    between atoms: C_50  and  C_51
REMARK                            x       y       z     vdW  Elec       q    Type
REMARK                         _______ _______ _______ _____ _____    ______ ____
ROOT
ATOM      1  C   UNL     1      28.165   0.298  26.455  0.00  0.00    -0.024 A 
ATOM      2  C   UNL     1      26.812   0.151  26.773  0.00  0.00    +0.000 A 
ATOM      3  C   UNL     1      26.377  -0.959  27.501  0.00  0.00    +0.074 A 
ATOM      4  C   UNL     1      27.306  -1.938  27.865  0.00  0.00    +0.008 A 
ATOM      5  C   UNL     1      28.659  -1.804  27.527  0.00  0.00    -0.049 A 
ATOM      6  C   UNL     1      29.601  -2.970  27.852  0.00  0.00    +0.058 C 
ATOM      7  C   UNL     1      30.920  -2.849  27.046  0.00  0.00    +0.017 C 
ATOM      8  C   UNL     1      31.523  -1.440  27.281  0.00  0.00    -0.011 C 
ATOM      9  C   UNL     1      33.028  -1.219  26.907  0.00  0.00    -0.066 C 
ATOM     10  C   UNL     1      33.498   0.162  27.504  0.00  0.00    -0.024 C 
ATOM     11  C   UNL     1      33.598   0.174  29.065  0.00  0.00    -0.096 C 
ATOM     12  C   UNL     1      32.552   1.308  27.023  0.00  0.00    -0.079 C 
ATOM     13  C   UNL     1      31.042   1.025  27.266  0.00  0.00    -0.004 C 
ATOM     14  C   UNL     1      30.612  -0.346  26.668  0.00  0.00    +0.028 C 
ATOM     15  C   UNL     1      29.112  -0.634  26.898  0.00  0.00    -0.049 A 
ENDROOT
BRANCH   3  16
ATOM     16  O   UNL     1      25.027  -1.065  27.843  0.00  0.00    -0.339 OA
ATOM     17  H   UNL     1      24.431  -1.036  27.103  0.00  0.00    +0.246 HD
ENDBRANCH   3  16
BRANCH   9  18
ATOM     18  C   UNL     1      33.414  -1.326  25.386  0.00  0.00    -0.012 C 
BRANCH  18  19
ATOM     19  C   UNL     1      32.752  -2.464  24.559  0.00  0.00    +0.010 C 
BRANCH  19  20
ATOM     20  C   UNL     1      31.919  -1.915  23.367  0.00  0.00    +0.035 C 
BRANCH  20  21
ATOM     21  C   UNL     1      32.432  -2.467  22.057  0.00  0.00    -0.099 C 
BRANCH  21  22
ATOM     22  C   UNL     1      32.674  -3.954  21.964  0.00  0.00    +0.035 C 
BRANCH  22  23
ATOM     23  C   UNL     1      31.921  -4.578  20.758  0.00  0.00    +0.012 C 
BRANCH  23  24
ATOM     24  C   UNL     1      30.586  -3.834  20.476  0.00  0.00    +0.002 C 
BRANCH  24  25
ATOM     25  C   UNL     1      30.481  -3.408  18.986  0.00  0.00    +0.000 C 
BRANCH  25  26
ATOM     26  C   UNL     1      31.871  -3.428  18.292  0.00  0.00    -0.000 C 
BRANCH  26  27
ATOM     27  C   UNL     1      32.205  -2.050  17.657  0.00  0.00    -0.000 C 
BRANCH  27  28
ATOM     28  C   UNL     1      33.738  -1.804  17.613  0.00  0.00    -0.003 C 
ATOM     29  C   UNL     1      34.395  -2.097  18.987  0.00  0.00    +0.004 C 
ENDBRANCH  27  28
ENDBRANCH  26  27
ENDBRANCH  25  26
ENDBRANCH  24  25
ENDBRANCH  23  24
ENDBRANCH  22  23
ENDBRANCH  21  22
ENDBRANCH  20  21
ENDBRANCH  19  20
ENDBRANCH  18  19
ENDBRANCH   9  18
BRANCH  10  30
ATOM     30  C   UNL     1      34.911   0.480  27.052  0.00  0.00    +0.266 C 
BRANCH  30  31
ATOM     31  O   UNL     1      35.333   1.715  27.359  0.00  0.00    -0.261 OA
ATOM     32  H   UNL     1      35.811   1.765  28.180  0.00  0.00    +0.320 HD
ENDBRANCH  30  31
ENDBRANCH  10  30
TORSDOF 14
ENDMDL
MODEL 2
REMARK VINA RESULT:    -8.506      2.916      6.793
REMARK INTER + INTRA:         -16.376
REMARK INTER:                 -13.317
REMARK INTRA:                  -3.059
REMARK UNBOUND:                -1.405
REMARK  Name = 112
REMARK  16 active torsions:
REMARK  status: ('A' for Active; 'I' for Inactive)
REMARK    1  A    between atoms: C_3  and  O_4
REMARK    2  A    between atoms: C_5  and  C_17
REMARK    3  A    between atoms: C_5  and  C_56
REMARK    4  A    between atoms: C_15  and  C_20
REMARK    5  A    between atoms: C_15  and  C_23
REMARK    6  A    between atoms: C_16  and  C_17
REMARK    7  A    between atoms: C_23  and  O_25
REMARK    8  A    between atoms: C_27  and  C_28
REMARK    9  A    between atoms: C_27  and  C_56
REMARK   10  A    between atoms: C_28  and  C_30
REMARK   11  A    between atoms: C_30  and  C_32
REMARK   12  A    between atoms: C_32  and  C_47
REMARK   13  A    between atoms: C_47  and  C_48
REMARK   14  A    between atoms: C_48  and  C_49
REMARK   15  A    between atoms: C_49  and  C_50
REMARK   16  A    between atoms: C_50  and  C_51
REMARK                            x       y       z     vdW  Elec       q    Type
REMARK                         _______ _______ _______ _____ _____    ______ ____
ROOT
ATOM      1  C   UNL     1      32.897  -3.636  24.906  0.00  0.00    -0.024 A 
ATOM      2  C   UNL     1      32.636  -4.208  23.658  0.00  0.00    +0.000 A 
ATOM      3  C   UNL     1      32.127  -3.426  22.619  0.00  0.00    +0.074 A 
ATOM      4  C   UNL     1      31.841  -2.078  22.861  0.00  0.00    +0.008 A 
ATOM      5  C   UNL     1      32.080  -1.510  24.118  0.00  0.00    -0.049 A 
ATOM      6  C   UNL     1      31.633  -0.061  24.350  0.00  0.00    +0.058 C 
ATOM      7  C   UNL     1      31.571   0.258  25.865  0.00  0.00    +0.017 C 
ATOM      8  C   UNL     1      32.931  -0.115  26.512  0.00  0.00    -0.011 C 
ATOM      9  C   UNL     1      33.252   0.475  27.927  0.00  0.00    -0.066 C 
ATOM     10  C   UNL     1      34.776   0.223  28.244  0.00  0.00    -0.024 C 
ATOM     11  C   UNL     1      35.753   1.070  27.364  0.00  0.00    -0.096 C 
ATOM     12  C   UNL     1      35.113  -1.296  28.100  0.00  0.00    -0.079 C 
ATOM     13  C   UNL     1      34.664  -1.918  26.747  0.00  0.00    -0.004 C 
ATOM     14  C   UNL     1      33.157  -1.648  26.463  0.00  0.00    +0.028 C 
ATOM     15  C   UNL     1      32.700  -2.267  25.124  0.00  0.00    -0.049 A 
ENDROOT
BRANCH   3  16
ATOM     16  O   UNL     1      31.911  -4.008  21.367  0.00  0.00    -0.339 OA
ATOM     17  H   UNL     1      32.525  -3.731  20.696  0.00  0.00    +0.246 HD
ENDBRANCH   3  16
BRANCH   9  18
ATOM     18  C   UNL     1      32.350   0.002  29.125  0.00  0.00    -0.012 C 
BRANCH  18  19
ATOM     19  C   UNL     1      31.406   1.055  29.769  0.00  0.00    +0.010 C 
BRANCH  19  20
ATOM     20  C   UNL     1      31.000   2.171  28.766  0.00  0.00    +0.035 C 
BRANCH  20  21
ATOM     21  C   UNL     1      29.505   2.179  28.552  0.00  0.00    -0.099 C 
BRANCH  21  22
ATOM     22  C   UNL     1      28.836   0.875  28.189  0.00  0.00    +0.035 C 
BRANCH  22  23
ATOM     23  C   UNL     1      27.738   1.080  27.110  0.00  0.00    +0.012 C 
BRANCH  23  24
ATOM     24  C   UNL     1      27.167  -0.278  26.615  0.00  0.00    +0.002 C 
BRANCH  24  25
ATOM     25  C   UNL     1      26.717  -1.168  27.805  0.00  0.00    +0.000 C 
BRANCH  25  26
ATOM     26  C   UNL     1      27.422  -2.552  27.777  0.00  0.00    -0.000 C 
BRANCH  26  27
ATOM     27  C   UNL     1      28.410  -2.659  26.583  0.00  0.00    -0.000 C 
BRANCH  27  28
ATOM     28  C   UNL     1      29.828  -3.078  27.058  0.00  0.00    -0.003 C 
ATOM     29  C   UNL     1      30.202  -2.387  28.395  0.00  0.00    +0.004 C 
ENDBRANCH  27  28
ENDBRANCH  26  27
ENDBRANCH  25  26
ENDBRANCH  24  25
ENDBRANCH  23  24
ENDBRANCH  22  23
ENDBRANCH  21  22
ENDBRANCH  20  21
ENDBRANCH  19  20
ENDBRANCH  18  19
ENDBRANCH   9  18
BRANCH  10  30
ATOM     30  C   UNL     1      35.100   0.658  29.660  0.00  0.00    +0.266 C 
BRANCH  30  31
ATOM     31  O   UNL     1      35.408   1.956  29.792  0.00  0.00    -0.261 OA
ATOM     32  H   UNL     1      36.099   2.125  30.424  0.00  0.00    +0.320 HD
ENDBRANCH  30  31
ENDBRANCH  10  30
TORSDOF 14
ENDMDL
MODEL 3
REMARK VINA RESULT:    -8.306      1.561      3.461
REMARK INTER + INTRA:         -16.024
REMARK INTER:                 -14.519
REMARK INTRA:                  -1.505
REMARK UNBOUND:                -1.405
REMARK  Name = 112
REMARK  16 active torsions:
REMARK  status: ('A' for Active; 'I' for Inactive)
REMARK    1  A    between atoms: C_3  and  O_4
REMARK    2  A    between atoms: C_5  and  C_17
REMARK    3  A    between atoms: C_5  and  C_56
REMARK    4  A    between atoms: C_15  and  C_20
REMARK    5  A    between atoms: C_15  and  C_23
REMARK    6  A    between atoms: C_16  and  C_17
REMARK    7  A    between atoms: C_23  and  O_25
REMARK    8  A    between atoms: C_27  and  C_28
REMARK    9  A    between atoms: C_27  and  C_56
REMARK   10  A    between atoms: C_28  and  C_30
REMARK   11  A    between atoms: C_30  and  C_32
REMARK   12  A    between atoms: C_32  and  C_47
REMARK   13  A    between atoms: C_47  and  C_48
REMARK   14  A    between atoms: C_48  and  C_49
REMARK   15  A    between atoms: C_49  and  C_50
REMARK   16  A    between atoms: C_50  and  C_51
REMARK                            x       y       z     vdW  Elec       q    Type
REMARK                         _______ _______ _______ _____ _____    ______ ____
ROOT
ATOM      1  C   UNL     1      28.737  -1.414  26.468  0.00  0.00    -0.024 A 
ATOM      2  C   UNL     1      27.367  -1.401  26.193  0.00  0.00    +0.000 A 
ATOM      3  C   UNL     1      26.585  -0.305  26.563  0.00  0.00    +0.074 A 
ATOM      4  C   UNL     1      27.185   0.755  27.251  0.00  0.00    +0.008 A 
ATOM      5  C   UNL     1      28.554   0.732  27.548  0.00  0.00    -0.049 A 
ATOM      6  C   UNL     1      29.122   1.868  28.408  0.00  0.00    +0.058 C 
ATOM      7  C   UNL     1      30.502   1.475  28.993  0.00  0.00    +0.017 C 
ATOM      8  C   UNL     1      31.424   1.013  27.833  0.00  0.00    -0.011 C 
ATOM      9  C   UNL     1      32.965   0.951  28.107  0.00  0.00    -0.066 C 
ATOM     10  C   UNL     1      33.713   0.761  26.732  0.00  0.00    -0.024 C 
ATOM     11  C   UNL     1      33.650   2.015  25.800  0.00  0.00    -0.096 C 
ATOM     12  C   UNL     1      33.152  -0.489  25.980  0.00  0.00    -0.079 C 
ATOM     13  C   UNL     1      31.603  -0.497  25.834  0.00  0.00    -0.004 C 
ATOM     14  C   UNL     1      30.896  -0.303  27.207  0.00  0.00    +0.028 C 
ATOM     15  C   UNL     1      29.358  -0.315  27.073  0.00  0.00    -0.049 A 
ENDROOT
BRANCH   3  16
ATOM     16  O   UNL     1      25.225  -0.294  26.242  0.00  0.00    -0.339 OA
ATOM     17  H   UNL     1      24.979  -0.908  25.559  0.00  0.00    +0.246 HD
ENDBRANCH   3  16
BRANCH   9  18
ATOM     18  C   UNL     1      33.465  -0.103  29.161  0.00  0.00    -0.012 C 
BRANCH  18  19
ATOM     19  C   UNL     1      32.687  -1.446  29.256  0.00  0.00    +0.010 C 
BRANCH  19  20
ATOM     20  C   UNL     1      33.484  -2.631  28.644  0.00  0.00    +0.035 C 
BRANCH  20  21
ATOM     21  C   UNL     1      32.593  -3.478  27.767  0.00  0.00    -0.099 C 
BRANCH  21  22
ATOM     22  C   UNL     1      33.161  -3.987  26.463  0.00  0.00    +0.035 C 
BRANCH  22  23
ATOM     23  C   UNL     1      32.155  -3.806  25.295  0.00  0.00    +0.012 C 
BRANCH  23  24
ATOM     24  C   UNL     1      32.870  -3.858  23.916  0.00  0.00    +0.002 C 
BRANCH  24  25
ATOM     25  C   UNL     1      32.339  -2.752  22.964  0.00  0.00    +0.000 C 
BRANCH  25  26
ATOM     26  C   UNL     1      33.052  -2.802  21.584  0.00  0.00    -0.000 C 
BRANCH  26  27
ATOM     27  C   UNL     1      32.925  -4.206  20.932  0.00  0.00    -0.000 C 
BRANCH  27  28
ATOM     28  C   UNL     1      31.437  -4.607  20.737  0.00  0.00    -0.003 C 
ATOM     29  C   UNL     1      30.742  -3.699  19.689  0.00  0.00    +0.004 C 
ENDBRANCH  27  28
ENDBRANCH  26  27
ENDBRANCH  25  26
ENDBRANCH  24  25
ENDBRANCH  23  24
ENDBRANCH  22  23
ENDBRANCH  21  22
ENDBRANCH  20  21
ENDBRANCH  19  20
ENDBRANCH  18  19
ENDBRANCH   9  18
BRANCH  10  30
ATOM     30  C   UNL     1      35.198   0.559  26.963  0.00  0.00    +0.266 C 
BRANCH  30  31
ATOM     31  O   UNL     1      35.929   1.683  26.928  0.00  0.00    -0.261 OA
ATOM     32  H   UNL     1      36.840   1.557  27.173  0.00  0.00    +0.320 HD
ENDBRANCH  30  31
ENDBRANCH  10  30
TORSDOF 14
ENDMDL
MODEL 4
REMARK VINA RESULT:    -7.897      2.595      7.416
REMARK INTER + INTRA:         -15.303
REMARK INTER:                 -12.609
REMARK INTRA:                  -2.694
REMARK UNBOUND:                -1.405
REMARK  Name = 112
REMARK  16 active torsions:
REMARK  status: ('A' for Active; 'I' for Inactive)
REMARK    1  A    between atoms: C_3  and  O_4
REMARK    2  A    between atoms: C_5  and  C_17
REMARK    3  A    between atoms: C_5  and  C_56
REMARK    4  A    between atoms: C_15  and  C_20
REMARK    5  A    between atoms: C_15  and  C_23
REMARK    6  A    between atoms: C_16  and  C_17
REMARK    7  A    between atoms: C_23  and  O_25
REMARK    8  A    between atoms: C_27  and  C_28
REMARK    9  A    between atoms: C_27  and  C_56
REMARK   10  A    between atoms: C_28  and  C_30
REMARK   11  A    between atoms: C_30  and  C_32
REMARK   12  A    between atoms: C_32  and  C_47
REMARK   13  A    between atoms: C_47  and  C_48
REMARK   14  A    between atoms: C_48  and  C_49
REMARK   15  A    between atoms: C_49  and  C_50
REMARK   16  A    between atoms: C_50  and  C_51
REMARK                            x       y       z     vdW  Elec       q    Type
REMARK                         _______ _______ _______ _____ _____    ______ ____
ROOT
ATOM      1  C   UNL     1      32.177  -4.693  23.129  0.00  0.00    -0.024 A 
ATOM      2  C   UNL     1      32.347  -4.959  21.768  0.00  0.00    +0.000 A 
ATOM      3  C   UNL     1      32.452  -3.909  20.854  0.00  0.00    +0.074 A 
ATOM      4  C   UNL     1      32.338  -2.594  21.315  0.00  0.00    +0.008 A 
ATOM      5  C   UNL     1      32.144  -2.326  22.676  0.00  0.00    -0.049 A 
ATOM      6  C   UNL     1      31.909  -0.870  23.096  0.00  0.00    +0.058 C 
ATOM      7  C   UNL     1      31.295  -0.803  24.518  0.00  0.00    +0.017 C 
ATOM      8  C   UNL     1      32.186  -1.624  25.487  0.00  0.00    -0.011 C 
ATOM      9  C   UNL     1      32.005  -1.383  27.025  0.00  0.00    -0.066 C 
ATOM     10  C   UNL     1      33.198  -2.079  27.786  0.00  0.00    -0.024 C 
ATOM     11  C   UNL     1      34.582  -1.386  27.560  0.00  0.00    -0.096 C 
ATOM     12  C   UNL     1      33.287  -3.587  27.387  0.00  0.00    -0.079 C 
ATOM     13  C   UNL     1      33.322  -3.835  25.853  0.00  0.00    -0.004 C 
ATOM     14  C   UNL     1      32.134  -3.132  25.131  0.00  0.00    +0.028 C 
ATOM     15  C   UNL     1      32.157  -3.377  23.606  0.00  0.00    -0.049 A 
ENDROOT
BRANCH   3  16
ATOM     16  O   UNL     1      32.662  -4.197  19.502  0.00  0.00    -0.339 OA
ATOM     17  H   UNL     1      33.374  -3.709  19.104  0.00  0.00    +0.246 HD
ENDBRANCH   3  16
BRANCH   9  18
ATOM     18  C   UNL     1      30.626  -1.794  27.660  0.00  0.00    -0.012 C 
BRANCH  18  19
ATOM     19  C   UNL     1      29.857  -2.972  26.999  0.00  0.00    +0.010 C 
BRANCH  19  20
ATOM     20  C   UNL     1      28.321  -2.735  26.982  0.00  0.00    +0.035 C 
BRANCH  20  21
ATOM     21  C   UNL     1      27.968  -1.470  27.730  0.00  0.00    -0.099 C 
BRANCH  21  22
ATOM     22  C   UNL     1      27.134  -0.435  27.015  0.00  0.00    +0.035 C 
BRANCH  22  23
ATOM     23  C   UNL     1      27.661   1.001  27.276  0.00  0.00    +0.012 C 
BRANCH  23  24
ATOM     24  C   UNL     1      28.944   1.294  26.450  0.00  0.00    +0.002 C 
BRANCH  24  25
ATOM     25  C   UNL     1      30.091   1.822  27.355  0.00  0.00    +0.000 C 
BRANCH  25  26
ATOM     26  C   UNL     1      29.821   1.508  28.853  0.00  0.00    -0.000 C 
BRANCH  26  27
ATOM     27  C   UNL     1      31.147   1.366  29.648  0.00  0.00    -0.000 C 
BRANCH  27  28
ATOM     28  C   UNL     1      32.367   1.819  28.800  0.00  0.00    -0.003 C 
ATOM     29  C   UNL     1      33.697   1.609  29.569  0.00  0.00    +0.004 C 
ENDBRANCH  27  28
ENDBRANCH  26  27
ENDBRANCH  25  26
ENDBRANCH  24  25
ENDBRANCH  23  24
ENDBRANCH  22  23
ENDBRANCH  21  22
ENDBRANCH  20  21
ENDBRANCH  19  20
ENDBRANCH  18  19
ENDBRANCH   9  18
BRANCH  10  30
ATOM     30  C   UNL     1      32.992  -1.987  29.286  0.00  0.00    +0.266 C 
BRANCH  30  31
ATOM     31  O   UNL     1      34.122  -1.920  30.004  0.00  0.00    -0.261 OA
ATOM     32  H   UNL     1      33.981  -1.931  30.945  0.00  0.00    +0.320 HD
ENDBRANCH  30  31
ENDBRANCH  10  30
TORSDOF 14
ENDMDL
MODEL 5
REMARK VINA RESULT:    -7.669      1.491      5.072
REMARK INTER + INTRA:         -14.903
REMARK INTER:                 -13.519
REMARK INTRA:                  -1.384
REMARK UNBOUND:                -1.405
REMARK  Name = 112
REMARK  16 active torsions:
REMARK  status: ('A' for Active; 'I' for Inactive)
REMARK    1  A    between atoms: C_3  and  O_4
REMARK    2  A    between atoms: C_5  and  C_17
REMARK    3  A    between atoms: C_5  and  C_56
REMARK    4  A    between atoms: C_15  and  C_20
REMARK    5  A    between atoms: C_15  and  C_23
REMARK    6  A    between atoms: C_16  and  C_17
REMARK    7  A    between atoms: C_23  and  O_25
REMARK    8  A    between atoms: C_27  and  C_28
REMARK    9  A    between atoms: C_27  and  C_56
REMARK   10  A    between atoms: C_28  and  C_30
REMARK   11  A    between atoms: C_30  and  C_32
REMARK   12  A    between atoms: C_32  and  C_47
REMARK   13  A    between atoms: C_47  and  C_48
REMARK   14  A    between atoms: C_48  and  C_49
REMARK   15  A    between atoms: C_49  and  C_50
REMARK   16  A    between atoms: C_50  and  C_51
REMARK                            x       y       z     vdW  Elec       q    Type
REMARK                         _______ _______ _______ _____ _____    ______ ____
ROOT
ATOM      1  C   UNL     1      34.020  -0.785  28.894  0.00  0.00    -0.024 A 
ATOM      2  C   UNL     1      35.008  -0.071  29.576  0.00  0.00    +0.000 A 
ATOM      3  C   UNL     1      35.048   1.322  29.500  0.00  0.00    +0.074 A 
ATOM      4  C   UNL     1      34.114   1.986  28.698  0.00  0.00    +0.008 A 
ATOM      5  C   UNL     1      33.137   1.269  27.994  0.00  0.00    -0.049 A 
ATOM      6  C   UNL     1      32.222   2.047  27.041  0.00  0.00    +0.058 C 
ATOM      7  C   UNL     1      31.521   1.085  26.048  0.00  0.00    +0.017 C 
ATOM      8  C   UNL     1      30.817  -0.040  26.853  0.00  0.00    -0.011 C 
ATOM      9  C   UNL     1      29.726  -0.889  26.117  0.00  0.00    -0.066 C 
ATOM     10  C   UNL     1      28.946  -1.743  27.189  0.00  0.00    -0.024 C 
ATOM     11  C   UNL     1      28.040  -0.892  28.137  0.00  0.00    -0.096 C 
ATOM     12  C   UNL     1      29.948  -2.593  28.034  0.00  0.00    -0.079 C 
ATOM     13  C   UNL     1      31.116  -1.770  28.648  0.00  0.00    -0.004 C 
ATOM     14  C   UNL     1      31.862  -0.937  27.565  0.00  0.00    +0.028 C 
ATOM     15  C   UNL     1      33.027  -0.119  28.164  0.00  0.00    -0.049 A 
ENDROOT
BRANCH   3  16
ATOM     16  O   UNL     1      36.019   2.019  30.224  0.00  0.00    -0.339 OA
ATOM     17  H   UNL     1      36.861   2.085  29.787  0.00  0.00    +0.246 HD
ENDBRANCH   3  16
BRANCH   9  18
ATOM     18  C   UNL     1      30.204  -1.796  24.925  0.00  0.00    -0.012 C 
BRANCH  18  19
ATOM     19  C   UNL     1      31.035  -1.119  23.799  0.00  0.00    +0.010 C 
BRANCH  19  20
ATOM     20  C   UNL     1      32.503  -1.628  23.768  0.00  0.00    +0.035 C 
BRANCH  20  21
ATOM     21  C   UNL     1      32.594  -2.955  23.050  0.00  0.00    -0.099 C 
BRANCH  21  22
ATOM     22  C   UNL     1      33.066  -2.952  21.616  0.00  0.00    +0.035 C 
BRANCH  22  23
ATOM     23  C   UNL     1      32.823  -4.325  20.934  0.00  0.00    +0.012 C 
BRANCH  23  24
ATOM     24  C   UNL     1      31.309  -4.581  20.696  0.00  0.00    +0.002 C 
BRANCH  24  25
ATOM     25  C   UNL     1      30.731  -3.602  19.637  0.00  0.00    +0.000 C 
BRANCH  25  26
ATOM     26  C   UNL     1      31.550  -3.648  18.317  0.00  0.00    -0.000 C 
BRANCH  26  27
ATOM     27  C   UNL     1      31.626  -2.246  17.651  0.00  0.00    -0.000 C 
BRANCH  27  28
ATOM     28  C   UNL     1      33.097  -1.826  17.384  0.00  0.00    -0.003 C 
ATOM     29  C   UNL     1      34.092  -2.881  17.934  0.00  0.00    +0.004 C 
ENDBRANCH  27  28
ENDBRANCH  26  27
ENDBRANCH  25  26
ENDBRANCH  24  25
ENDBRANCH  23  24
ENDBRANCH  22  23
ENDBRANCH  21  22
ENDBRANCH  20  21
ENDBRANCH  19  20
ENDBRANCH  18  19
ENDBRANCH   9  18
BRANCH  10  30
ATOM     30  C   UNL     1      27.970  -2.682  26.507  0.00  0.00    +0.266 C 
BRANCH  30  31
ATOM     31  O   UNL     1      28.013  -3.950  26.945  0.00  0.00    -0.261 OA
ATOM     32  H   UNL     1      28.113  -4.593  26.251  0.00  0.00    +0.320 HD
ENDBRANCH  30  31
ENDBRANCH  10  30
TORSDOF 14
ENDMDL
MODEL 6
REMARK VINA RESULT:    -7.373      2.659      7.051
REMARK INTER + INTRA:         -14.381
REMARK INTER:                 -11.656
REMARK INTRA:                  -2.724
REMARK UNBOUND:                -1.405
REMARK  Name = 112
REMARK  16 active torsions:
REMARK  status: ('A' for Active; 'I' for Inactive)
REMARK    1  A    between atoms: C_3  and  O_4
REMARK    2  A    between atoms: C_5  and  C_17
REMARK    3  A    between atoms: C_5  and  C_56
REMARK    4  A    between atoms: C_15  and  C_20
REMARK    5  A    between atoms: C_15  and  C_23
REMARK    6  A    between atoms: C_16  and  C_17
REMARK    7  A    between atoms: C_23  and  O_25
REMARK    8  A    between atoms: C_27  and  C_28
REMARK    9  A    between atoms: C_27  and  C_56
REMARK   10  A    between atoms: C_28  and  C_30
REMARK   11  A    between atoms: C_30  and  C_32
REMARK   12  A    between atoms: C_32  and  C_47
REMARK   13  A    between atoms: C_47  and  C_48
REMARK   14  A    between atoms: C_48  and  C_49
REMARK   15  A    between atoms: C_49  and  C_50
REMARK   16  A    between atoms: C_50  and  C_51
REMARK                            x       y       z     vdW  Elec       q    Type
REMARK                         _______ _______ _______ _____ _____    ______ ____
ROOT
ATOM      1  C   UNL     1      31.986  -1.511  23.269  0.00  0.00    -0.024 A 
ATOM      2  C   UNL     1      32.508  -2.353  22.283  0.00  0.00    +0.000 A 
ATOM      3  C   UNL     1      32.818  -3.681  22.585  0.00  0.00    +0.074 A 
ATOM      4  C   UNL     1      32.640  -4.139  23.894  0.00  0.00    +0.008 A 
ATOM      5  C   UNL     1      32.139  -3.289  24.888  0.00  0.00    -0.049 A 
ATOM      6  C   UNL     1      32.081  -3.820  26.326  0.00  0.00    +0.058 C 
ATOM      7  C   UNL     1      31.925  -2.653  27.335  0.00  0.00    +0.017 C 
ATOM      8  C   UNL     1      30.711  -1.785  26.912  0.00  0.00    -0.011 C 
ATOM      9  C   UNL     1      30.113  -0.801  27.975  0.00  0.00    -0.066 C 
ATOM     10  C   UNL     1      28.730  -0.264  27.441  0.00  0.00    -0.024 C 
ATOM     11  C   UNL     1      27.603  -1.348  27.405  0.00  0.00    -0.096 C 
ATOM     12  C   UNL     1      28.907   0.366  26.022  0.00  0.00    -0.079 C 
ATOM     13  C   UNL     1      29.631  -0.560  25.004  0.00  0.00    -0.004 C 
ATOM     14  C   UNL     1      30.989  -1.075  25.563  0.00  0.00    +0.028 C 
ATOM     15  C   UNL     1      31.719  -1.992  24.557  0.00  0.00    -0.049 A 
ENDROOT
BRANCH   3  16
ATOM     16  O   UNL     1      33.301  -4.517  21.575  0.00  0.00    -0.339 OA
ATOM     17  H   UNL     1      33.729  -5.305  21.889  0.00  0.00    +0.246 HD
ENDBRANCH   3  16
BRANCH   9  18
ATOM     18  C   UNL     1      31.026   0.389  28.446  0.00  0.00    -0.012 C 
BRANCH  18  19
ATOM     19  C   UNL     1      31.982   0.127  29.644  0.00  0.00    +0.010 C 
BRANCH  19  20
ATOM     20  C   UNL     1      32.725   1.415  30.095  0.00  0.00    +0.035 C 
BRANCH  20  21
ATOM     21  C   UNL     1      34.186   1.351  29.715  0.00  0.00    -0.099 C 
BRANCH  21  22
ATOM     22  C   UNL     1      34.690   2.329  28.681  0.00  0.00    +0.035 C 
BRANCH  22  23
ATOM     23  C   UNL     1      33.569   2.735  27.687  0.00  0.00    +0.012 C 
BRANCH  23  24
ATOM     24  C   UNL     1      33.511   1.770  26.471  0.00  0.00    +0.002 C 
BRANCH  24  25
ATOM     25  C   UNL     1      34.755   0.841  26.427  0.00  0.00    +0.000 C 
BRANCH  25  26
ATOM     26  C   UNL     1      34.359  -0.647  26.638  0.00  0.00    -0.000 C 
BRANCH  26  27
ATOM     27  C   UNL     1      35.440  -1.409  27.452  0.00  0.00    -0.000 C 
BRANCH  27  28
ATOM     28  C   UNL     1      36.836  -0.746  27.299  0.00  0.00    -0.003 C 
ATOM     29  C   UNL     1      37.857  -1.723  26.662  0.00  0.00    +0.004 C 
ENDBRANCH  27  28
ENDBRANCH  26  27
ENDBRANCH  25  26
ENDBRANCH  24  25
ENDBRANCH  23  24
ENDBRANCH  22  23
ENDBRANCH  21  22
ENDBRANCH  20  21
ENDBRANCH  19  20
ENDBRANCH  18  19
ENDBRANCH   9  18
BRANCH  10  30
ATOM     30  C   UNL     1      28.179   0.796  28.375  0.00  0.00    +0.266 C 
BRANCH  30  31
ATOM     31  O   UNL     1      27.752   1.912  27.767  0.00  0.00    -0.261 OA
ATOM     32  H   UNL     1      26.987   2.304  28.175  0.00  0.00    +0.320 HD
ENDBRANCH  30  31
ENDBRANCH  10  30
TORSDOF 14
ENDMDL
MODEL 7
REMARK VINA RESULT:    -7.183      3.290      9.787
REMARK INTER + INTRA:         -14.046
REMARK INTER:                 -12.623
REMARK INTRA:                  -1.423
REMARK UNBOUND:                -1.405
REMARK  Name = 112
REMARK  16 active torsions:
REMARK  status: ('A' for Active; 'I' for Inactive)
REMARK    1  A    between atoms: C_3  and  O_4
REMARK    2  A    between atoms: C_5  and  C_17
REMARK    3  A    between atoms: C_5  and  C_56
REMARK    4  A    between atoms: C_15  and  C_20
REMARK    5  A    between atoms: C_15  and  C_23
REMARK    6  A    between atoms: C_16  and  C_17
REMARK    7  A    between atoms: C_23  and  O_25
REMARK    8  A    between atoms: C_27  and  C_28
REMARK    9  A    between atoms: C_27  and  C_56
REMARK   10  A    between atoms: C_28  and  C_30
REMARK   11  A    between atoms: C_30  and  C_32
REMARK   12  A    between atoms: C_32  and  C_47
REMARK   13  A    between atoms: C_47  and  C_48
REMARK   14  A    between atoms: C_48  and  C_49
REMARK   15  A    between atoms: C_49  and  C_50
REMARK   16  A    between atoms: C_50  and  C_51
REMARK                            x       y       z     vdW  Elec       q    Type
REMARK                         _______ _______ _______ _____ _____    ______ ____
ROOT
ATOM      1  C   UNL     1      34.400  -0.778  17.066  0.00  0.00    -0.024 A 
ATOM      2  C   UNL     1      35.309  -0.322  16.108  0.00  0.00    +0.000 A 
ATOM      3  C   UNL     1      36.683  -0.433  16.334  0.00  0.00    +0.074 A 
ATOM      4  C   UNL     1      37.131  -0.964  17.548  0.00  0.00    +0.008 A 
ATOM      5  C   UNL     1      36.219  -1.400  18.519  0.00  0.00    -0.049 A 
ATOM      6  C   UNL     1      36.775  -1.859  19.872  0.00  0.00    +0.058 C 
ATOM      7  C   UNL     1      35.655  -1.887  20.943  0.00  0.00    +0.017 C 
ATOM      8  C   UNL     1      34.469  -2.732  20.406  0.00  0.00    -0.011 C 
ATOM      9  C   UNL     1      33.406  -3.236  21.439  0.00  0.00    -0.066 C 
ATOM     10  C   UNL     1      32.487  -4.306  20.735  0.00  0.00    -0.024 C 
ATOM     11  C   UNL     1      33.217  -5.651  20.412  0.00  0.00    -0.096 C 
ATOM     12  C   UNL     1      31.869  -3.711  19.429  0.00  0.00    -0.079 C 
ATOM     13  C   UNL     1      32.914  -3.080  18.465  0.00  0.00    -0.004 C 
ATOM     14  C   UNL     1      33.806  -2.032  19.192  0.00  0.00    +0.028 C 
ATOM     15  C   UNL     1      34.844  -1.395  18.242  0.00  0.00    -0.049 A 
ENDROOT
BRANCH   3  16
ATOM     16  O   UNL     1      37.575  -0.009  15.346  0.00  0.00    -0.339 OA
ATOM     17  H   UNL     1      37.325  -0.252  14.462  0.00  0.00    +0.246 HD
ENDBRANCH   3  16
BRANCH   9  18
ATOM     18  C   UNL     1      32.533  -2.146  22.163  0.00  0.00    -0.012 C 
BRANCH  18  19
ATOM     19  C   UNL     1      32.517  -2.159  23.718  0.00  0.00    +0.010 C 
BRANCH  19  20
ATOM     20  C   UNL     1      31.515  -1.125  24.303  0.00  0.00    +0.035 C 
BRANCH  20  21
ATOM     21  C   UNL     1      32.160  -0.324  25.410  0.00  0.00    -0.099 C 
BRANCH  21  22
ATOM     22  C   UNL     1      31.449  -0.257  26.740  0.00  0.00    +0.035 C 
BRANCH  22  23
ATOM     23  C   UNL     1      31.530  -1.611  27.497  0.00  0.00    +0.012 C 
BRANCH  23  24
ATOM     24  C   UNL     1      30.170  -1.977  28.153  0.00  0.00    +0.002 C 
BRANCH  24  25
ATOM     25  C   UNL     1      29.451  -3.108  27.368  0.00  0.00    +0.000 C 
BRANCH  25  26
ATOM     26  C   UNL     1      27.996  -2.706  26.999  0.00  0.00    -0.000 C 
BRANCH  26  27
ATOM     27  C   UNL     1      27.960  -1.363  26.220  0.00  0.00    -0.000 C 
BRANCH  27  28
ATOM     28  C   UNL     1      27.157  -0.282  26.993  0.00  0.00    -0.003 C 
ATOM     29  C   UNL     1      27.926   1.064  27.041  0.00  0.00    +0.004 C 
ENDBRANCH  27  28
ENDBRANCH  26  27
ENDBRANCH  25  26
ENDBRANCH  24  25
ENDBRANCH  23  24
ENDBRANCH  22  23
ENDBRANCH  21  22
ENDBRANCH  20  21
ENDBRANCH  19  20
ENDBRANCH  18  19
ENDBRANCH   9  18
BRANCH  10  30
ATOM     30  C   UNL     1      31.358  -4.722  21.657  0.00  0.00    +0.266 C 
BRANCH  30  31
ATOM     31  O   UNL     1      31.159  -6.046  21.738  0.00  0.00    -0.261 OA
ATOM     32  H   UNL     1      30.962  -6.352  22.618  0.00  0.00    +0.320 HD
ENDBRANCH  30  31
ENDBRANCH  10  30
TORSDOF 14
ENDMDL
MODEL 8
REMARK VINA RESULT:    -6.902      1.626      5.343
REMARK INTER + INTRA:         -13.552
REMARK INTER:                 -12.192
REMARK INTRA:                  -1.360
REMARK UNBOUND:                -1.405
REMARK  Name = 112
REMARK  16 active torsions:
REMARK  status: ('A' for Active; 'I' for Inactive)
REMARK    1  A    between atoms: C_3  and  O_4
REMARK    2  A    between atoms: C_5  and  C_17
REMARK    3  A    between atoms: C_5  and  C_56
REMARK    4  A    between atoms: C_15  and  C_20
REMARK    5  A    between atoms: C_15  and  C_23
REMARK    6  A    between atoms: C_16  and  C_17
REMARK    7  A    between atoms: C_23  and  O_25
REMARK    8  A    between atoms: C_27  and  C_28
REMARK    9  A    between atoms: C_27  and  C_56
REMARK   10  A    between atoms: C_28  and  C_30
REMARK   11  A    between atoms: C_30  and  C_32
REMARK   12  A    between atoms: C_32  and  C_47
REMARK   13  A    between atoms: C_47  and  C_48
REMARK   14  A    between atoms: C_48  and  C_49
REMARK   15  A    between atoms: C_49  and  C_50
REMARK   16  A    between atoms: C_50  and  C_51
REMARK                            x       y       z     vdW  Elec       q    Type
REMARK                         _______ _______ _______ _____ _____    ______ ____
ROOT
ATOM      1  C   UNL     1      34.440  -1.968  27.098  0.00  0.00    -0.024 A 
ATOM      2  C   UNL     1      35.831  -2.061  27.197  0.00  0.00    +0.000 A 
ATOM      3  C   UNL     1      36.619  -0.911  27.121  0.00  0.00    +0.074 A 
ATOM      4  C   UNL     1      36.000   0.323  26.898  0.00  0.00    +0.008 A 
ATOM      5  C   UNL     1      34.608   0.414  26.775  0.00  0.00    -0.049 A 
ATOM      6  C   UNL     1      34.006   1.777  26.413  0.00  0.00    +0.058 C 
ATOM      7  C   UNL     1      32.552   1.615  25.900  0.00  0.00    +0.017 C 
ATOM      8  C   UNL     1      31.741   0.801  26.942  0.00  0.00    -0.011 C 
ATOM      9  C   UNL     1      30.178   0.848  26.848  0.00  0.00    -0.066 C 
ATOM     10  C   UNL     1      29.576   0.216  28.160  0.00  0.00    -0.024 C 
ATOM     11  C   UNL     1      29.800   1.086  29.441  0.00  0.00    -0.096 C 
ATOM     12  C   UNL     1      30.154  -1.218  28.384  0.00  0.00    -0.079 C 
ATOM     13  C   UNL     1      31.707  -1.289  28.335  0.00  0.00    -0.004 C 
ATOM     14  C   UNL     1      32.269  -0.654  27.030  0.00  0.00    +0.028 C 
ATOM     15  C   UNL     1      33.811  -0.724  26.968  0.00  0.00    -0.049 A 
ENDROOT
BRANCH   3  16
ATOM     16  O   UNL     1      38.005  -1.021  27.264  0.00  0.00    -0.339 OA
ATOM     17  H   UNL     1      38.436  -0.219  27.534  0.00  0.00    +0.246 HD
ENDBRANCH   3  16
BRANCH   9  18
ATOM     18  C   UNL     1      29.516   0.212  25.571  0.00  0.00    -0.012 C 
BRANCH  18  19
ATOM     19  C   UNL     1      30.134  -1.105  25.025  0.00  0.00    +0.010 C 
BRANCH  19  20
ATOM     20  C   UNL     1      30.770  -0.917  23.619  0.00  0.00    +0.035 C 
BRANCH  20  21
ATOM     21  C   UNL     1      32.220  -1.340  23.627  0.00  0.00    -0.099 C 
BRANCH  21  22
ATOM     22  C   UNL     1      32.540  -2.776  23.287  0.00  0.00    +0.035 C 
BRANCH  22  23
ATOM     23  C   UNL     1      32.811  -2.954  21.769  0.00  0.00    +0.012 C 
BRANCH  23  24
ATOM     24  C   UNL     1      31.569  -3.533  21.035  0.00  0.00    +0.002 C 
BRANCH  24  25
ATOM     25  C   UNL     1      31.918  -3.952  19.581  0.00  0.00    +0.000 C 
BRANCH  25  26
ATOM     26  C   UNL     1      33.271  -3.341  19.123  0.00  0.00    -0.000 C 
BRANCH  26  27
ATOM     27  C   UNL     1      33.079  -2.378  17.920  0.00  0.00    -0.000 C 
BRANCH  27  28
ATOM     28  C   UNL     1      34.316  -1.459  17.728  0.00  0.00    -0.003 C 
ATOM     29  C   UNL     1      35.114  -1.305  19.049  0.00  0.00    +0.004 C 
ENDBRANCH  27  28
ENDBRANCH  26  27
ENDBRANCH  25  26
ENDBRANCH  24  25
ENDBRANCH  23  24
ENDBRANCH  22  23
ENDBRANCH  21  22
ENDBRANCH  20  21
ENDBRANCH  19  20
ENDBRANCH  18  19
ENDBRANCH   9  18
BRANCH  10  30
ATOM     30  C   UNL     1      28.066   0.117  28.054  0.00  0.00    +0.266 C 
BRANCH  30  31
ATOM     31  O   UNL     1      27.589  -1.135  27.997  0.00  0.00    -0.261 OA
ATOM     32  H   UNL     1      28.014  -1.737  28.599  0.00  0.00    +0.320 HD
ENDBRANCH  30  31
ENDBRANCH  10  30
TORSDOF 14
ENDMDL
MODEL 9
REMARK VINA RESULT:    -6.881      3.113      7.119
REMARK INTER + INTRA:         -13.514
REMARK INTER:                 -11.592
REMARK INTRA:                  -1.923
REMARK UNBOUND:                -1.405
REMARK  Name = 112
REMARK  16 active torsions:
REMARK  status: ('A' for Active; 'I' for Inactive)
REMARK    1  A    between atoms: C_3  and  O_4
REMARK    2  A    between atoms: C_5  and  C_17
REMARK    3  A    between atoms: C_5  and  C_56
REMARK    4  A    between atoms: C_15  and  C_20
REMARK    5  A    between atoms: C_15  and  C_23
REMARK    6  A    between atoms: C_16  and  C_17
REMARK    7  A    between atoms: C_23  and  O_25
REMARK    8  A    between atoms: C_27  and  C_28
REMARK    9  A    between atoms: C_27  and  C_56
REMARK   10  A    between atoms: C_28  and  C_30
REMARK   11  A    between atoms: C_30  and  C_32
REMARK   12  A    between atoms: C_32  and  C_47
REMARK   13  A    between atoms: C_47  and  C_48
REMARK   14  A    between atoms: C_48  and  C_49
REMARK   15  A    between atoms: C_49  and  C_50
REMARK   16  A    between atoms: C_50  and  C_51
REMARK                            x       y       z     vdW  Elec       q    Type
REMARK                         _______ _______ _______ _____ _____    ______ ____
ROOT
ATOM      1  C   UNL     1      31.875  -1.547  23.415  0.00  0.00    -0.024 A 
ATOM      2  C   UNL     1      32.223  -2.525  22.480  0.00  0.00    +0.000 A 
ATOM      3  C   UNL     1      32.527  -3.822  22.900  0.00  0.00    +0.074 A 
ATOM      4  C   UNL     1      32.522  -4.112  24.268  0.00  0.00    +0.008 A 
ATOM      5  C   UNL     1      32.197  -3.125  25.208  0.00  0.00    -0.049 A 
ATOM      6  C   UNL     1      32.327  -3.477  26.695  0.00  0.00    +0.058 C 
ATOM      7  C   UNL     1      32.356  -2.193  27.561  0.00  0.00    +0.017 C 
ATOM      8  C   UNL     1      31.123  -1.320  27.205  0.00  0.00    -0.011 C 
ATOM      9  C   UNL     1      30.717  -0.188  28.208  0.00  0.00    -0.066 C 
ATOM     10  C   UNL     1      29.291   0.352  27.807  0.00  0.00    -0.024 C 
ATOM     11  C   UNL     1      28.134  -0.670  28.061  0.00  0.00    -0.096 C 
ATOM     12  C   UNL     1      29.285   0.799  26.309  0.00  0.00    -0.079 C 
ATOM     13  C   UNL     1      29.825  -0.277  25.325  0.00  0.00    -0.004 C 
ATOM     14  C   UNL     1      31.231  -0.791  25.752  0.00  0.00    +0.028 C 
ATOM     15  C   UNL     1      31.778  -1.857  24.777  0.00  0.00    -0.049 A 
ENDROOT
BRANCH   3  16
ATOM     16  O   UNL     1      32.832  -4.796  21.945  0.00  0.00    -0.339 OA
ATOM     17  H   UNL     1      33.699  -4.712  21.563  0.00  0.00    +0.246 HD
ENDBRANCH   3  16
BRANCH   9  18
ATOM     18  C   UNL     1      31.728   1.002  28.397  0.00  0.00    -0.012 C 
BRANCH  18  19
ATOM     19  C   UNL     1      32.503   1.075  29.742  0.00  0.00    +0.010 C 
BRANCH  19  20
ATOM     20  C   UNL     1      33.975   0.595  29.598  0.00  0.00    +0.035 C 
BRANCH  20  21
ATOM     21  C   UNL     1      34.771   1.562  28.753  0.00  0.00    -0.099 C 
BRANCH  21  22
ATOM     22  C   UNL     1      35.551   1.004  27.586  0.00  0.00    +0.035 C 
BRANCH  22  23
ATOM     23  C   UNL     1      34.816  -0.198  26.934  0.00  0.00    +0.012 C 
BRANCH  23  24
ATOM     24  C   UNL     1      35.681  -1.489  26.985  0.00  0.00    +0.002 C 
BRANCH  24  25
ATOM     25  C   UNL     1      37.186  -1.168  26.780  0.00  0.00    +0.000 C 
BRANCH  25  26
ATOM     26  C   UNL     1      38.078  -1.978  27.762  0.00  0.00    -0.000 C 
BRANCH  26  27
ATOM     27  C   UNL     1      39.520  -2.145  27.209  0.00  0.00    -0.000 C 
BRANCH  27  28
ATOM     28  C   UNL     1      39.798  -3.614  26.789  0.00  0.00    -0.003 C 
ATOM     29  C   UNL     1      40.018  -4.522  28.027  0.00  0.00    +0.004 C 
ENDBRANCH  27  28
ENDBRANCH  26  27
ENDBRANCH  25  26
ENDBRANCH  24  25
ENDBRANCH  23  24
ENDBRANCH  22  23
ENDBRANCH  21  22
ENDBRANCH  20  21
ENDBRANCH  19  20
ENDBRANCH  18  19
ENDBRANCH   9  18
BRANCH  10  30
ATOM     30  C   UNL     1      28.915   1.542  28.668  0.00  0.00    +0.266 C 
BRANCH  30  31
ATOM     31  O   UNL     1      28.358   2.564  28.000  0.00  0.00    -0.261 OA
ATOM     32  H   UNL     1      27.741   3.070  28.518  0.00  0.00    +0.320 HD
ENDBRANCH  30  31
ENDBRANCH  10  30
TORSDOF 14
ENDMDL
MODEL 10
REMARK VINA RESULT:    -6.792      1.564      5.295
REMARK INTER + INTRA:         -13.358
REMARK INTER:                 -12.264
REMARK INTRA:                  -1.095
REMARK UNBOUND:                -1.405
REMARK  Name = 112
REMARK  16 active torsions:
REMARK  status: ('A' for Active; 'I' for Inactive)
REMARK    1  A    between atoms: C_3  and  O_4
REMARK    2  A    between atoms: C_5  and  C_17
REMARK    3  A    between atoms: C_5  and  C_56
REMARK    4  A    between atoms: C_15  and  C_20
REMARK    5  A    between atoms: C_15  and  C_23
REMARK    6  A    between atoms: C_16  and  C_17
REMARK    7  A    between atoms: C_23  and  O_25
REMARK    8  A    between atoms: C_27  and  C_28
REMARK    9  A    between atoms: C_27  and  C_56
REMARK   10  A    between atoms: C_28  and  C_30
REMARK   11  A    between atoms: C_30  and  C_32
REMARK   12  A    between atoms: C_32  and  C_47
REMARK   13  A    between atoms: C_47  and  C_48
REMARK   14  A    between atoms: C_48  and  C_49
REMARK   15  A    between atoms: C_49  and  C_50
REMARK   16  A    between atoms: C_50  and  C_51
REMARK                            x       y       z     vdW  Elec       q    Type
REMARK                         _______ _______ _______ _____ _____    ______ ____
ROOT
ATOM      1  C   UNL     1      33.721  -1.849  28.947  0.00  0.00    -0.024 A 
ATOM      2  C   UNL     1      34.855  -1.546  29.706  0.00  0.00    +0.000 A 
ATOM      3  C   UNL     1      35.478  -0.303  29.574  0.00  0.00    +0.074 A 
ATOM      4  C   UNL     1      34.978   0.611  28.641  0.00  0.00    +0.008 A 
ATOM      5  C   UNL     1      33.856   0.299  27.863  0.00  0.00    -0.049 A 
ATOM      6  C   UNL     1      33.433   1.297  26.777  0.00  0.00    +0.058 C 
ATOM      7  C   UNL     1      32.483   0.623  25.755  0.00  0.00    +0.017 C 
ATOM      8  C   UNL     1      31.309  -0.039  26.522  0.00  0.00    -0.011 C 
ATOM      9  C   UNL     1      30.030  -0.427  25.705  0.00  0.00    -0.066 C 
ATOM     10  C   UNL     1      28.877  -0.789  26.717  0.00  0.00    -0.024 C 
ATOM     11  C   UNL     1      28.330   0.438  27.518  0.00  0.00    -0.096 C 
ATOM     12  C   UNL     1      29.357  -1.898  27.709  0.00  0.00    -0.079 C 
ATOM     13  C   UNL     1      30.704  -1.575  28.415  0.00  0.00    -0.004 C 
ATOM     14  C   UNL     1      31.819  -1.219  27.389  0.00  0.00    +0.028 C 
ATOM     15  C   UNL     1      33.163  -0.902  28.080  0.00  0.00    -0.049 A 
ENDROOT
BRANCH   3  16
ATOM     16  O   UNL     1      36.586  -0.005  30.372  0.00  0.00    -0.339 OA
ATOM     17  H   UNL     1      37.059   0.776  30.109  0.00  0.00    +0.246 HD
ENDBRANCH   3  16
BRANCH   9  18
ATOM     18  C   UNL     1      30.186  -1.551  24.617  0.00  0.00    -0.012 C 
BRANCH  18  19
ATOM     19  C   UNL     1      31.001  -1.202  23.340  0.00  0.00    +0.010 C 
BRANCH  19  20
ATOM     20  C   UNL     1      32.474  -1.689  23.431  0.00  0.00    +0.035 C 
BRANCH  20  21
ATOM     21  C   UNL     1      32.631  -3.042  22.778  0.00  0.00    -0.099 C 
BRANCH  21  22
ATOM     22  C   UNL     1      32.124  -3.208  21.366  0.00  0.00    +0.035 C 
BRANCH  22  23
ATOM     23  C   UNL     1      33.291  -3.416  20.363  0.00  0.00    +0.012 C 
BRANCH  23  24
ATOM     24  C   UNL     1      34.497  -2.495  20.696  0.00  0.00    +0.002 C 
BRANCH  24  25
ATOM     25  C   UNL     1      34.894  -1.622  19.475  0.00  0.00    +0.000 C 
BRANCH  25  26
ATOM     26  C   UNL     1      34.940  -2.461  18.168  0.00  0.00    -0.000 C 
BRANCH  26  27
ATOM     27  C   UNL     1      33.970  -1.892  17.096  0.00  0.00    -0.000 C 
BRANCH  27  28
ATOM     28  C   UNL     1      32.748  -2.827  16.885  0.00  0.00    -0.003 C 
ATOM     29  C   UNL     1      31.475  -2.253  17.560  0.00  0.00    +0.004 C 
ENDBRANCH  27  28
ENDBRANCH  26  27
ENDBRANCH  25  26
ENDBRANCH  24  25
ENDBRANCH  23  24
ENDBRANCH  22  23
ENDBRANCH  21  22
ENDBRANCH  20  21
ENDBRANCH  19  20
ENDBRANCH  18  19
ENDBRANCH   9  18
BRANCH  10  30
ATOM     30  C   UNL     1      27.661  -1.302  25.971  0.00  0.00    +0.266 C 
BRANCH  30  31
ATOM     31  O   UNL     1      27.362  -2.589  26.202  0.00  0.00    -0.261 OA
ATOM     32  H   UNL     1      28.059  -3.194  25.967  0.00  0.00    +0.320 HD
ENDBRANCH  30  31
ENDBRANCH  10  30
TORSDOF 14
ENDMDL
MODEL 11
REMARK VINA RESULT:    -6.784      3.301      9.895
REMARK INTER + INTRA:         -13.344
REMARK INTER:                 -11.989
REMARK INTRA:                  -1.356
REMARK UNBOUND:                -1.405
REMARK  Name = 112
REMARK  16 active torsions:
REMARK  status: ('A' for Active; 'I' for Inactive)
REMARK    1  A    between atoms: C_3  and  O_4
REMARK    2  A    between atoms: C_5  and  C_17
REMARK    3  A    between atoms: C_5  and  C_56
REMARK    4  A    between atoms: C_15  and  C_20
REMARK    5  A    between atoms: C_15  and  C_23
REMARK    6  A    between atoms: C_16  and  C_17
REMARK    7  A    between atoms: C_23  and  O_25
REMARK    8  A    between atoms: C_27  and  C_28
REMARK    9  A    between atoms: C_27  and  C_56
REMARK   10  A    between atoms: C_28  and  C_30
REMARK   11  A    between atoms: C_30  and  C_32
REMARK   12  A    between atoms: C_32  and  C_47
REMARK   13  A    between atoms: C_47  and  C_48
REMARK   14  A    between atoms: C_48  and  C_49
REMARK   15  A    between atoms: C_49  and  C_50
REMARK   16  A    between atoms: C_50  and  C_51
REMARK                            x       y       z     vdW  Elec       q    Type
REMARK                         _______ _______ _______ _____ _____    ______ ____
ROOT
ATOM      1  C   UNL     1      34.535  -0.607  17.059  0.00  0.00    -0.024 A 
ATOM      2  C   UNL     1      35.462  -0.149  16.119  0.00  0.00    +0.000 A 
ATOM      3  C   UNL     1      36.831  -0.285  16.357  0.00  0.00    +0.074 A 
ATOM      4  C   UNL     1      37.258  -0.844  17.566  0.00  0.00    +0.008 A 
ATOM      5  C   UNL     1      36.330  -1.282  18.519  0.00  0.00    -0.049 A 
ATOM      6  C   UNL     1      36.864  -1.773  19.870  0.00  0.00    +0.058 C 
ATOM      7  C   UNL     1      35.733  -1.802  20.929  0.00  0.00    +0.017 C 
ATOM      8  C   UNL     1      34.540  -2.619  20.365  0.00  0.00    -0.011 C 
ATOM      9  C   UNL     1      33.458  -3.124  21.379  0.00  0.00    -0.066 C 
ATOM     10  C   UNL     1      32.531  -4.167  20.647  0.00  0.00    -0.024 C 
ATOM     11  C   UNL     1      33.243  -5.518  20.309  0.00  0.00    -0.096 C 
ATOM     12  C   UNL     1      31.936  -3.541  19.345  0.00  0.00    -0.079 C 
ATOM     13  C   UNL     1      33.000  -2.909  18.403  0.00  0.00    -0.004 C 
ATOM     14  C   UNL     1      33.900  -1.888  19.157  0.00  0.00    +0.028 C 
ATOM     15  C   UNL     1      34.957  -1.251  18.229  0.00  0.00    -0.049 A 
ENDROOT
BRANCH   3  16
ATOM     16  O   UNL     1      37.740   0.142  15.385  0.00  0.00    -0.339 OA
ATOM     17  H   UNL     1      38.325   0.833  15.673  0.00  0.00    +0.246 HD
ENDBRANCH   3  16
BRANCH   9  18
ATOM     18  C   UNL     1      32.595  -2.033  22.113  0.00  0.00    -0.012 C 
BRANCH  18  19
ATOM     19  C   UNL     1      32.440  -2.161  23.654  0.00  0.00    +0.010 C 
BRANCH  19  20
ATOM     20  C   UNL     1      31.951  -0.838  24.307  0.00  0.00    +0.035 C 
BRANCH  20  21
ATOM     21  C   UNL     1      32.694  -0.573  25.596  0.00  0.00    -0.099 C 
BRANCH  21  22
ATOM     22  C   UNL     1      33.119   0.846  25.888  0.00  0.00    +0.035 C 
BRANCH  22  23
ATOM     23  C   UNL     1      32.479   1.374  27.200  0.00  0.00    +0.012 C 
BRANCH  23  24
ATOM     24  C   UNL     1      30.947   1.578  27.042  0.00  0.00    +0.002 C 
BRANCH  24  25
ATOM     25  C   UNL     1      30.154   0.712  28.058  0.00  0.00    +0.000 C 
BRANCH  25  26
ATOM     26  C   UNL     1      28.854   0.142  27.425  0.00  0.00    -0.000 C 
BRANCH  26  27
ATOM     27  C   UNL     1      28.729  -1.386  27.670  0.00  0.00    -0.000 C 
BRANCH  27  28
ATOM     28  C   UNL     1      30.106  -2.020  28.009  0.00  0.00    -0.003 C 
ATOM     29  C   UNL     1      30.512  -3.081  26.954  0.00  0.00    +0.004 C 
ENDBRANCH  27  28
ENDBRANCH  26  27
ENDBRANCH  25  26
ENDBRANCH  24  25
ENDBRANCH  23  24
ENDBRANCH  22  23
ENDBRANCH  21  22
ENDBRANCH  20  21
ENDBRANCH  19  20
ENDBRANCH  18  19
ENDBRANCH   9  18
BRANCH  10  30
ATOM     30  C   UNL     1      31.386  -4.582  21.550  0.00  0.00    +0.266 C 
BRANCH  30  31
ATOM     31  O   UNL     1      31.280  -5.904  21.752  0.00  0.00    -0.261 OA
ATOM     32  H   UNL     1      30.391  -6.198  21.916  0.00  0.00    +0.320 HD
ENDBRANCH  30  31
ENDBRANCH  10  30
TORSDOF 14
ENDMDL
MODEL 12
REMARK VINA RESULT:    -6.759      2.703      7.475
REMARK INTER + INTRA:         -13.300
REMARK INTER:                 -10.416
REMARK INTRA:                  -2.884
REMARK UNBOUND:                -1.405
REMARK  Name = 112
REMARK  16 active torsions:
REMARK  status: ('A' for Active; 'I' for Inactive)
REMARK    1  A    between atoms: C_3  and  O_4
REMARK    2  A    between atoms: C_5  and  C_17
REMARK    3  A    between atoms: C_5  and  C_56
REMARK    4  A    between atoms: C_15  and  C_20
REMARK    5  A    between atoms: C_15  and  C_23
REMARK    6  A    between atoms: C_16  and  C_17
REMARK    7  A    between atoms: C_23  and  O_25
REMARK    8  A    between atoms: C_27  and  C_28
REMARK    9  A    between atoms: C_27  and  C_56
REMARK   10  A    between atoms: C_28  and  C_30
REMARK   11  A    between atoms: C_30  and  C_32
REMARK   12  A    between atoms: C_32  and  C_47
REMARK   13  A    between atoms: C_47  and  C_48
REMARK   14  A    between atoms: C_48  and  C_49
REMARK   15  A    between atoms: C_49  and  C_50
REMARK   16  A    between atoms: C_50  and  C_51
REMARK                            x       y       z     vdW  Elec       q    Type
REMARK                         _______ _______ _______ _____ _____    ______ ____
ROOT
ATOM      1  C   UNL     1      31.200  -1.208  23.475  0.00  0.00    -0.024 A 
ATOM      2  C   UNL     1      32.079  -1.665  22.490  0.00  0.00    +0.000 A 
ATOM      3  C   UNL     1      32.979  -2.694  22.773  0.00  0.00    +0.074 A 
ATOM      4  C   UNL     1      33.019  -3.226  24.065  0.00  0.00    +0.008 A 
ATOM      5  C   UNL     1      32.155  -2.752  25.061  0.00  0.00    -0.049 A 
ATOM      6  C   UNL     1      32.332  -3.294  26.485  0.00  0.00    +0.058 C 
ATOM      7  C   UNL     1      31.620  -2.378  27.512  0.00  0.00    +0.017 C 
ATOM      8  C   UNL     1      30.146  -2.180  27.070  0.00  0.00    -0.011 C 
ATOM      9  C   UNL     1      29.132  -1.637  28.133  0.00  0.00    -0.066 C 
ATOM     10  C   UNL     1      27.671  -1.807  27.568  0.00  0.00    -0.024 C 
ATOM     11  C   UNL     1      27.199  -3.295  27.473  0.00  0.00    -0.096 C 
ATOM     12  C   UNL     1      27.550  -1.121  26.169  0.00  0.00    -0.079 C 
ATOM     13  C   UNL     1      28.646  -1.555  25.155  0.00  0.00    -0.004 C 
ATOM     14  C   UNL     1      30.076  -1.379  25.745  0.00  0.00    +0.028 C 
ATOM     15  C   UNL     1      31.173  -1.801  24.744  0.00  0.00    -0.049 A 
ENDROOT
BRANCH   3  16
ATOM     16  O   UNL     1      33.821  -3.164  21.760  0.00  0.00    -0.339 OA
ATOM     17  H   UNL     1      33.372  -3.622  21.059  0.00  0.00    +0.246 HD
ENDBRANCH   3  16
BRANCH   9  18
ATOM     18  C   UNL     1      29.357  -0.172  28.659  0.00  0.00    -0.012 C 
BRANCH  18  19
ATOM     19  C   UNL     1      30.825   0.323  28.790  0.00  0.00    +0.010 C 
BRANCH  19  20
ATOM     20  C   UNL     1      30.915   1.870  28.900  0.00  0.00    +0.035 C 
BRANCH  20  21
ATOM     21  C   UNL     1      32.346   2.309  29.105  0.00  0.00    -0.099 C 
BRANCH  21  22
ATOM     22  C   UNL     1      33.240   1.433  29.950  0.00  0.00    +0.035 C 
BRANCH  22  23
ATOM     23  C   UNL     1      34.741   1.687  29.642  0.00  0.00    +0.012 C 
BRANCH  23  24
ATOM     24  C   UNL     1      35.547   0.358  29.611  0.00  0.00    +0.002 C 
BRANCH  24  25
ATOM     25  C   UNL     1      34.700  -0.802  29.021  0.00  0.00    +0.000 C 
BRANCH  25  26
ATOM     26  C   UNL     1      35.201  -1.208  27.607  0.00  0.00    -0.000 C 
BRANCH  26  27
ATOM     27  C   UNL     1      35.100  -0.022  26.609  0.00  0.00    -0.000 C 
BRANCH  27  28
ATOM     28  C   UNL     1      33.621   0.298  26.259  0.00  0.00    -0.003 C 
ATOM     29  C   UNL     1      33.456   1.773  25.807  0.00  0.00    +0.004 C 
ENDBRANCH  27  28
ENDBRANCH  26  27
ENDBRANCH  25  26
ENDBRANCH  24  25
ENDBRANCH  23  24
ENDBRANCH  22  23
ENDBRANCH  21  22
ENDBRANCH  20  21
ENDBRANCH  19  20
ENDBRANCH  18  19
ENDBRANCH   9  18
BRANCH  10  30
ATOM     30  C   UNL     1      26.664  -1.171  28.506  0.00  0.00    +0.266 C 
BRANCH  30  31
ATOM     31  O   UNL     1      25.391  -1.538  28.297  0.00  0.00    -0.261 OA
ATOM     32  H   UNL     1      24.806  -0.811  28.114  0.00  0.00    +0.320 HD
ENDBRANCH  30  31
ENDBRANCH  10  30
TORSDOF 14
ENDMDL
MODEL 13
REMARK VINA RESULT:    -6.725      2.563      7.298
REMARK INTER + INTRA:         -13.240
REMARK INTER:                 -10.775
REMARK INTRA:                  -2.465
REMARK UNBOUND:                -1.405
REMARK  Name = 112
REMARK  16 active torsions:
REMARK  status: ('A' for Active; 'I' for Inactive)
REMARK    1  A    between atoms: C_3  and  O_4
REMARK    2  A    between atoms: C_5  and  C_17
REMARK    3  A    between atoms: C_5  and  C_56
REMARK    4  A    between atoms: C_15  and  C_20
REMARK    5  A    between atoms: C_15  and  C_23
REMARK    6  A    between atoms: C_16  and  C_17
REMARK    7  A    between atoms: C_23  and  O_25
REMARK    8  A    between atoms: C_27  and  C_28
REMARK    9  A    between atoms: C_27  and  C_56
REMARK   10  A    between atoms: C_28  and  C_30
REMARK   11  A    between atoms: C_30  and  C_32
REMARK   12  A    between atoms: C_32  and  C_47
REMARK   13  A    between atoms: C_47  and  C_48
REMARK   14  A    between atoms: C_48  and  C_49
REMARK   15  A    between atoms: C_49  and  C_50
REMARK   16  A    between atoms: C_50  and  C_51
REMARK                            x       y       z     vdW  Elec       q    Type
REMARK                         _______ _______ _______ _____ _____    ______ ____
ROOT
ATOM      1  C   UNL     1      32.265  -1.526  22.858  0.00  0.00    -0.024 A 
ATOM      2  C   UNL     1      32.782  -2.261  21.788  0.00  0.00    +0.000 A 
ATOM      3  C   UNL     1      33.040  -3.626  21.933  0.00  0.00    +0.074 A 
ATOM      4  C   UNL     1      32.818  -4.232  23.174  0.00  0.00    +0.008 A 
ATOM      5  C   UNL     1      32.322  -3.490  24.254  0.00  0.00    -0.049 A 
ATOM      6  C   UNL     1      32.214  -4.187  25.615  0.00  0.00    +0.058 C 
ATOM      7  C   UNL     1      32.074  -3.146  26.754  0.00  0.00    +0.017 C 
ATOM      8  C   UNL     1      30.899  -2.190  26.417  0.00  0.00    -0.011 C 
ATOM      9  C   UNL     1      30.310  -1.321  27.579  0.00  0.00    -0.066 C 
ATOM     10  C   UNL     1      28.958  -0.675  27.089  0.00  0.00    -0.024 C 
ATOM     11  C   UNL     1      27.797  -1.705  26.901  0.00  0.00    -0.096 C 
ATOM     12  C   UNL     1      29.188   0.115  25.760  0.00  0.00    -0.079 C 
ATOM     13  C   UNL     1      29.904  -0.707  24.652  0.00  0.00    -0.004 C 
ATOM     14  C   UNL     1      31.231  -1.334  25.169  0.00  0.00    +0.028 C 
ATOM     15  C   UNL     1      31.953  -2.148  24.073  0.00  0.00    -0.049 A 
ENDROOT
BRANCH   3  16
ATOM     16  O   UNL     1      33.518  -4.351  20.838  0.00  0.00    -0.339 OA
ATOM     17  H   UNL     1      33.787  -5.239  21.044  0.00  0.00    +0.246 HD
ENDBRANCH   3  16
BRANCH   9  18
ATOM     18  C   UNL     1      31.251  -0.229  28.208  0.00  0.00    -0.012 C 
BRANCH  18  19
ATOM     19  C   UNL     1      31.949  -0.575  29.553  0.00  0.00    +0.010 C 
BRANCH  19  20
ATOM     20  C   UNL     1      32.567  -2.002  29.543  0.00  0.00    +0.035 C 
BRANCH  20  21
ATOM     21  C   UNL     1      34.068  -1.933  29.386  0.00  0.00    -0.099 C 
BRANCH  21  22
ATOM     22  C   UNL     1      34.620  -1.524  28.041  0.00  0.00    +0.035 C 
BRANCH  22  23
ATOM     23  C   UNL     1      35.653  -0.373  28.176  0.00  0.00    +0.012 C 
BRANCH  23  24
ATOM     24  C   UNL     1      35.589   0.286  29.582  0.00  0.00    +0.002 C 
BRANCH  24  25
ATOM     25  C   UNL     1      35.189   1.783  29.486  0.00  0.00    +0.000 C 
BRANCH  25  26
ATOM     26  C   UNL     1      34.830   2.182  28.027  0.00  0.00    -0.000 C 
BRANCH  26  27
ATOM     27  C   UNL     1      33.336   2.588  27.904  0.00  0.00    -0.000 C 
BRANCH  27  28
ATOM     28  C   UNL     1      32.735   2.128  26.548  0.00  0.00    -0.003 C 
ATOM     29  C   UNL     1      33.760   1.298  25.730  0.00  0.00    +0.004 C 
ENDBRANCH  27  28
ENDBRANCH  26  27
ENDBRANCH  25  26
ENDBRANCH  24  25
ENDBRANCH  23  24
ENDBRANCH  22  23
ENDBRANCH  21  22
ENDBRANCH  20  21
ENDBRANCH  19  20
ENDBRANCH  18  19
ENDBRANCH   9  18
BRANCH  10  30
ATOM     30  C   UNL     1      28.421   0.284  28.134  0.00  0.00    +0.266 C 
BRANCH  30  31
ATOM     31  O   UNL     1      28.375   1.568  27.747  0.00  0.00    -0.261 OA
ATOM     32  H   UNL     1      28.406   1.686  26.803  0.00  0.00    +0.320 HD
ENDBRANCH  30  31
ENDBRANCH  10  30
TORSDOF 14
ENDMDL
MODEL 14
REMARK VINA RESULT:    -6.016      3.372      9.980
REMARK INTER + INTRA:         -11.994
REMARK INTER:                 -10.984
REMARK INTRA:                  -1.010
REMARK UNBOUND:                -1.405
REMARK  Name = 112
REMARK  16 active torsions:
REMARK  status: ('A' for Active; 'I' for Inactive)
REMARK    1  A    between atoms: C_3  and  O_4
REMARK    2  A    between atoms: C_5  and  C_17
REMARK    3  A    between atoms: C_5  and  C_56
REMARK    4  A    between atoms: C_15  and  C_20
REMARK    5  A    between atoms: C_15  and  C_23
REMARK    6  A    between atoms: C_16  and  C_17
REMARK    7  A    between atoms: C_23  and  O_25
REMARK    8  A    between atoms: C_27  and  C_28
REMARK    9  A    between atoms: C_27  and  C_56
REMARK   10  A    between atoms: C_28  and  C_30
REMARK   11  A    between atoms: C_30  and  C_32
REMARK   12  A    between atoms: C_32  and  C_47
REMARK   13  A    between atoms: C_47  and  C_48
REMARK   14  A    between atoms: C_48  and  C_49
REMARK   15  A    between atoms: C_49  and  C_50
REMARK   16  A    between atoms: C_50  and  C_51
REMARK                            x       y       z     vdW  Elec       q    Type
REMARK                         _______ _______ _______ _____ _____    ______ ____
ROOT
ATOM      1  C   UNL     1      34.787  -0.037  17.142  0.00  0.00    -0.024 A 
ATOM      2  C   UNL     1      35.713   0.505  16.246  0.00  0.00    +0.000 A 
ATOM      3  C   UNL     1      37.081   0.302  16.441  0.00  0.00    +0.074 A 
ATOM      4  C   UNL     1      37.509  -0.410  17.566  0.00  0.00    +0.008 A 
ATOM      5  C   UNL     1      36.583  -0.933  18.477  0.00  0.00    -0.049 A 
ATOM      6  C   UNL     1      37.122  -1.598  19.749  0.00  0.00    +0.058 C 
ATOM      7  C   UNL     1      36.006  -1.723  20.817  0.00  0.00    +0.017 C 
ATOM      8  C   UNL     1      34.781  -2.432  20.182  0.00  0.00    -0.011 C 
ATOM      9  C   UNL     1      33.700  -3.025  21.148  0.00  0.00    -0.066 C 
ATOM     10  C   UNL     1      32.731  -3.946  20.313  0.00  0.00    -0.024 C 
ATOM     11  C   UNL     1      33.396  -5.265  19.802  0.00  0.00    -0.096 C 
ATOM     12  C   UNL     1      32.135  -3.150  19.107  0.00  0.00    -0.079 C 
ATOM     13  C   UNL     1      33.203  -2.440  18.228  0.00  0.00    -0.004 C 
ATOM     14  C   UNL     1      34.146  -1.543  19.082  0.00  0.00    +0.028 C 
ATOM     15  C   UNL     1      35.207  -0.829  18.218  0.00  0.00    -0.049 A 
ENDROOT
BRANCH   3  16
ATOM     16  O   UNL     1      37.988   0.818  15.511  0.00  0.00    -0.339 OA
ATOM     17  H   UNL     1      38.598   1.453  15.869  0.00  0.00    +0.246 HD
ENDBRANCH   3  16
BRANCH   9  18
ATOM     18  C   UNL     1      32.881  -2.006  22.023  0.00  0.00    -0.012 C 
BRANCH  18  19
ATOM     19  C   UNL     1      32.394  -2.492  23.417  0.00  0.00    +0.010 C 
BRANCH  19  20
ATOM     20  C   UNL     1      31.952  -1.312  24.327  0.00  0.00    +0.035 C 
BRANCH  20  21
ATOM     21  C   UNL     1      31.483  -1.821  25.671  0.00  0.00    -0.099 C 
BRANCH  21  22
ATOM     22  C   UNL     1      32.468  -1.809  26.815  0.00  0.00    +0.035 C 
BRANCH  22  23
ATOM     23  C   UNL     1      31.745  -1.813  28.188  0.00  0.00    +0.012 C 
BRANCH  23  24
ATOM     24  C   UNL     1      30.616  -0.746  28.239  0.00  0.00    +0.002 C 
BRANCH  24  25
ATOM     25  C   UNL     1      30.983   0.420  29.197  0.00  0.00    +0.000 C 
BRANCH  25  26
ATOM     26  C   UNL     1      31.155   1.756  28.423  0.00  0.00    -0.000 C 
BRANCH  26  27
ATOM     27  C   UNL     1      32.655   2.086  28.192  0.00  0.00    -0.000 C 
BRANCH  27  28
ATOM     28  C   UNL     1      33.042   1.938  26.695  0.00  0.00    -0.003 C 
ATOM     29  C   UNL     1      34.359   1.137  26.531  0.00  0.00    +0.004 C 
ENDBRANCH  27  28
ENDBRANCH  26  27
ENDBRANCH  25  26
ENDBRANCH  24  25
ENDBRANCH  23  24
ENDBRANCH  22  23
ENDBRANCH  21  22
ENDBRANCH  20  21
ENDBRANCH  19  20
ENDBRANCH  18  19
ENDBRANCH   9  18
BRANCH  10  30
ATOM     30  C   UNL     1      31.587  -4.434  21.181  0.00  0.00    +0.266 C 
BRANCH  30  31
ATOM     31  O   UNL     1      30.376  -4.360  20.608  0.00  0.00    -0.261 OA
ATOM     32  H   UNL     1      30.134  -3.482  20.333  0.00  0.00    +0.320 HD
ENDBRANCH  30  31
ENDBRANCH  10  30
TORSDOF 14
ENDMDL
MODEL 15
REMARK VINA RESULT:    -5.837      2.092      5.942
REMARK INTER + INTRA:         -11.677
REMARK INTER:                  -9.131
REMARK INTRA:                  -2.546
REMARK UNBOUND:                -1.405
REMARK  Name = 112
REMARK  16 active torsions:
REMARK  status: ('A' for Active; 'I' for Inactive)
REMARK    1  A    between atoms: C_3  and  O_4
REMARK    2  A    between atoms: C_5  and  C_17
REMARK    3  A    between atoms: C_5  and  C_56
REMARK    4  A    between atoms: C_15  and  C_20
REMARK    5  A    between atoms: C_15  and  C_23
REMARK    6  A    between atoms: C_16  and  C_17
REMARK    7  A    between atoms: C_23  and  O_25
REMARK    8  A    between atoms: C_27  and  C_28
REMARK    9  A    between atoms: C_27  and  C_56
REMARK   10  A    between atoms: C_28  and  C_30
REMARK   11  A    between atoms: C_30  and  C_32
REMARK   12  A    between atoms: C_32  and  C_47
REMARK   13  A    between atoms: C_47  and  C_48
REMARK   14  A    between atoms: C_48  and  C_49
REMARK   15  A    between atoms: C_49  and  C_50
REMARK   16  A    between atoms: C_50  and  C_51
REMARK                            x       y       z     vdW  Elec       q    Type
REMARK                         _______ _______ _______ _____ _____    ______ ____
ROOT
ATOM      1  C   UNL     1      34.456  -1.192  28.873  0.00  0.00    -0.024 A 
ATOM      2  C   UNL     1      35.822  -1.436  28.716  0.00  0.00    +0.000 A 
ATOM      3  C   UNL     1      36.508  -0.913  27.618  0.00  0.00    +0.074 A 
ATOM      4  C   UNL     1      35.799  -0.182  26.659  0.00  0.00    +0.008 A 
ATOM      5  C   UNL     1      34.424   0.043  26.804  0.00  0.00    -0.049 A 
ATOM      6  C   UNL     1      33.686   0.747  25.659  0.00  0.00    +0.058 C 
ATOM      7  C   UNL     1      32.156   0.530  25.777  0.00  0.00    +0.017 C 
ATOM      8  C   UNL     1      31.700   0.948  27.200  0.00  0.00    -0.011 C 
ATOM      9  C   UNL     1      30.171   1.199  27.432  0.00  0.00    -0.066 C 
ATOM     10  C   UNL     1      29.982   1.897  28.832  0.00  0.00    -0.024 C 
ATOM     11  C   UNL     1      30.512   3.368  28.882  0.00  0.00    -0.096 C 
ATOM     12  C   UNL     1      30.662   1.049  29.955  0.00  0.00    -0.079 C 
ATOM     13  C   UNL     1      32.142   0.677  29.658  0.00  0.00    -0.004 C 
ATOM     14  C   UNL     1      32.294  -0.006  28.267  0.00  0.00    +0.028 C 
ATOM     15  C   UNL     1      33.761  -0.384  27.965  0.00  0.00    -0.049 A 
ENDROOT
BRANCH   3  16
ATOM     16  O   UNL     1      37.883  -1.134  27.501  0.00  0.00    -0.339 OA
ATOM     17  H   UNL     1      38.132  -1.668  26.756  0.00  0.00    +0.246 HD
ENDBRANCH   3  16
BRANCH   9  18
ATOM     18  C   UNL     1      29.210  -0.039  27.294  0.00  0.00    -0.012 C 
BRANCH  18  19
ATOM     19  C   UNL     1      29.300  -0.872  25.984  0.00  0.00    +0.010 C 
BRANCH  19  20
ATOM     20  C   UNL     1      29.425  -2.395  26.265  0.00  0.00    +0.035 C 
BRANCH  20  21
ATOM     21  C   UNL     1      30.193  -2.642  27.543  0.00  0.00    -0.099 C 
BRANCH  21  22
ATOM     22  C   UNL     1      31.641  -3.053  27.428  0.00  0.00    +0.035 C 
BRANCH  22  23
ATOM     23  C   UNL     1      31.924  -3.774  26.082  0.00  0.00    +0.012 C 
BRANCH  23  24
ATOM     24  C   UNL     1      33.012  -3.033  25.258  0.00  0.00    +0.002 C 
BRANCH  24  25
ATOM     25  C   UNL     1      32.447  -2.525  23.904  0.00  0.00    +0.000 C 
BRANCH  25  26
ATOM     26  C   UNL     1      32.420  -3.658  22.840  0.00  0.00    -0.000 C 
BRANCH  26  27
ATOM     27  C   UNL     1      32.317  -3.080  21.402  0.00  0.00    -0.000 C 
BRANCH  27  28
ATOM     28  C   UNL     1      31.845  -4.160  20.391  0.00  0.00    -0.003 C 
ATOM     29  C   UNL     1      30.405  -3.873  19.892  0.00  0.00    +0.004 C 
ENDBRANCH  27  28
ENDBRANCH  26  27
ENDBRANCH  25  26
ENDBRANCH  24  25
ENDBRANCH  23  24
ENDBRANCH  22  23
ENDBRANCH  21  22
ENDBRANCH  20  21
ENDBRANCH  19  20
ENDBRANCH  18  19
ENDBRANCH   9  18
BRANCH  10  30
ATOM     30  C   UNL     1      28.507   2.036  29.158  0.00  0.00    +0.266 C 
BRANCH  30  31
ATOM     31  O   UNL     1      27.849   2.935  28.411  0.00  0.00    -0.261 OA
ATOM     32  H   UNL     1      27.811   3.803  28.799  0.00  0.00    +0.320 HD
ENDBRANCH  30  31
ENDBRANCH  10  30
TORSDOF 14
ENDMDL
MODEL 16
REMARK VINA RESULT:    -5.591      2.666      4.275
REMARK INTER + INTRA:         -11.244
REMARK INTER:                 -10.536
REMARK INTRA:                  -0.708
REMARK UNBOUND:                -1.405
REMARK  Name = 112
REMARK  16 active torsions:
REMARK  status: ('A' for Active; 'I' for Inactive)
REMARK    1  A    between atoms: C_3  and  O_4
REMARK    2  A    between atoms: C_5  and  C_17
REMARK    3  A    between atoms: C_5  and  C_56
REMARK    4  A    between atoms: C_15  and  C_20
REMARK    5  A    between atoms: C_15  and  C_23
REMARK    6  A    between atoms: C_16  and  C_17
REMARK    7  A    between atoms: C_23  and  O_25
REMARK    8  A    between atoms: C_27  and  C_28
REMARK    9  A    between atoms: C_27  and  C_56
REMARK   10  A    between atoms: C_28  and  C_30
REMARK   11  A    between atoms: C_30  and  C_32
REMARK   12  A    between atoms: C_32  and  C_47
REMARK   13  A    between atoms: C_47  and  C_48
REMARK   14  A    between atoms: C_48  and  C_49
REMARK   15  A    between atoms: C_49  and  C_50
REMARK   16  A    between atoms: C_50  and  C_51
REMARK                            x       y       z     vdW  Elec       q    Type
REMARK                         _______ _______ _______ _____ _____    ______ ____
ROOT
ATOM      1  C   UNL     1      33.579   1.164  29.214  0.00  0.00    -0.024 A 
ATOM      2  C   UNL     1      33.403   1.866  30.409  0.00  0.00    +0.000 A 
ATOM      3  C   UNL     1      32.148   1.908  31.021  0.00  0.00    +0.074 A 
ATOM      4  C   UNL     1      31.067   1.277  30.397  0.00  0.00    +0.008 A 
ATOM      5  C   UNL     1      31.238   0.593  29.187  0.00  0.00    -0.049 A 
ATOM      6  C   UNL     1      29.990   0.027  28.498  0.00  0.00    +0.058 C 
ATOM      7  C   UNL     1      30.285  -0.299  27.012  0.00  0.00    +0.017 C 
ATOM      8  C   UNL     1      31.539  -1.210  26.938  0.00  0.00    -0.011 C 
ATOM      9  C   UNL     1      31.796  -1.990  25.604  0.00  0.00    -0.066 C 
ATOM     10  C   UNL     1      32.922  -3.064  25.859  0.00  0.00    -0.024 C 
ATOM     11  C   UNL     1      32.475  -4.242  26.785  0.00  0.00    -0.096 C 
ATOM     12  C   UNL     1      34.197  -2.379  26.448  0.00  0.00    -0.079 C 
ATOM     13  C   UNL     1      33.919  -1.487  27.691  0.00  0.00    -0.004 C 
ATOM     14  C   UNL     1      32.801  -0.442  27.408  0.00  0.00    +0.028 C 
ATOM     15  C   UNL     1      32.521   0.454  28.635  0.00  0.00    -0.049 A 
ENDROOT
BRANCH   3  16
ATOM     16  O   UNL     1      32.003   2.581  32.237  0.00  0.00    -0.339 OA
ATOM     17  H   UNL     1      32.617   3.295  32.365  0.00  0.00    +0.246 HD
ENDBRANCH   3  16
BRANCH   9  18
ATOM     18  C   UNL     1      32.121  -1.137  24.324  0.00  0.00    -0.012 C 
BRANCH  18  19
ATOM     19  C   UNL     1      31.370  -1.501  23.012  0.00  0.00    +0.010 C 
BRANCH  19  20
ATOM     20  C   UNL     1      32.264  -2.304  22.027  0.00  0.00    +0.035 C 
BRANCH  20  21
ATOM     21  C   UNL     1      31.443  -3.319  21.266  0.00  0.00    -0.099 C 
BRANCH  21  22
ATOM     22  C   UNL     1      32.176  -4.316  20.401  0.00  0.00    +0.035 C 
BRANCH  22  23
ATOM     23  C   UNL     1      33.210  -3.617  19.478  0.00  0.00    +0.012 C 
BRANCH  23  24
ATOM     24  C   UNL     1      32.632  -3.384  18.054  0.00  0.00    +0.002 C 
BRANCH  24  25
ATOM     25  C   UNL     1      32.778  -1.899  17.621  0.00  0.00    +0.000 C 
BRANCH  25  26
ATOM     26  C   UNL     1      34.126  -1.653  16.888  0.00  0.00    -0.000 C 
BRANCH  26  27
ATOM     27  C   UNL     1      35.073  -0.756  17.732  0.00  0.00    -0.000 C 
BRANCH  27  28
ATOM     28  C   UNL     1      36.272  -1.570  18.292  0.00  0.00    -0.003 C 
ATOM     29  C   UNL     1      36.263  -1.590  19.843  0.00  0.00    +0.004 C 
ENDBRANCH  27  28
ENDBRANCH  26  27
ENDBRANCH  25  26
ENDBRANCH  24  25
ENDBRANCH  23  24
ENDBRANCH  22  23
ENDBRANCH  21  22
ENDBRANCH  20  21
ENDBRANCH  19  20
ENDBRANCH  18  19
ENDBRANCH   9  18
BRANCH  10  30
ATOM     30  C   UNL     1      33.300  -3.751  24.561  0.00  0.00    +0.266 C 
BRANCH  30  31
ATOM     31  O   UNL     1      32.462  -4.726  24.178  0.00  0.00    -0.261 OA
ATOM     32  H   UNL     1      32.307  -4.753  23.240  0.00  0.00    +0.320 HD
ENDBRANCH  30  31
ENDBRANCH  10  30
TORSDOF 14
ENDMDL
MODEL 17
REMARK VINA RESULT:    -5.545      3.185      9.602
REMARK INTER + INTRA:         -11.163
REMARK INTER:                  -9.771
REMARK INTRA:                  -1.392
REMARK UNBOUND:                -1.405
REMARK  Name = 112
REMARK  16 active torsions:
REMARK  status: ('A' for Active; 'I' for Inactive)
REMARK    1  A    between atoms: C_3  and  O_4
REMARK    2  A    between atoms: C_5  and  C_17
REMARK    3  A    between atoms: C_5  and  C_56
REMARK    4  A    between atoms: C_15  and  C_20
REMARK    5  A    between atoms: C_15  and  C_23
REMARK    6  A    between atoms: C_16  and  C_17
REMARK    7  A    between atoms: C_23  and  O_25
REMARK    8  A    between atoms: C_27  and  C_28
REMARK    9  A    between atoms: C_27  and  C_56
REMARK   10  A    between atoms: C_28  and  C_30
REMARK   11  A    between atoms: C_30  and  C_32
REMARK   12  A    between atoms: C_32  and  C_47
REMARK   13  A    between atoms: C_47  and  C_48
REMARK   14  A    between atoms: C_48  and  C_49
REMARK   15  A    between atoms: C_49  and  C_50
REMARK   16  A    between atoms: C_50  and  C_51
REMARK                            x       y       z     vdW  Elec       q    Type
REMARK                         _______ _______ _______ _____ _____    ______ ____
ROOT
ATOM      1  C   UNL     1      33.221  -2.854  16.740  0.00  0.00    -0.024 A 
ATOM      2  C   UNL     1      33.893  -2.786  15.517  0.00  0.00    +0.000 A 
ATOM      3  C   UNL     1      35.266  -2.532  15.482  0.00  0.00    +0.074 A 
ATOM      4  C   UNL     1      35.944  -2.301  16.683  0.00  0.00    +0.008 A 
ATOM      5  C   UNL     1      35.267  -2.344  17.908  0.00  0.00    -0.049 A 
ATOM      6  C   UNL     1      36.045  -1.964  19.174  0.00  0.00    +0.058 C 
ATOM      7  C   UNL     1      35.074  -1.648  20.339  0.00  0.00    +0.017 C 
ATOM      8  C   UNL     1      34.092  -2.837  20.511  0.00  0.00    -0.011 C 
ATOM      9  C   UNL     1      33.291  -2.934  21.853  0.00  0.00    -0.066 C 
ATOM     10  C   UNL     1      32.608  -4.352  21.931  0.00  0.00    -0.024 C 
ATOM     11  C   UNL     1      33.618  -5.530  22.127  0.00  0.00    -0.096 C 
ATOM     12  C   UNL     1      31.740  -4.604  20.655  0.00  0.00    -0.079 C 
ATOM     13  C   UNL     1      32.498  -4.368  19.318  0.00  0.00    -0.004 C 
ATOM     14  C   UNL     1      33.164  -2.961  19.276  0.00  0.00    +0.028 C 
ATOM     15  C   UNL     1      33.914  -2.715  17.949  0.00  0.00    -0.049 A 
ENDROOT
BRANCH   3  16
ATOM     16  O   UNL     1      35.926  -2.510  14.250  0.00  0.00    -0.339 OA
ATOM     17  H   UNL     1      35.402  -2.176  13.531  0.00  0.00    +0.246 HD
ENDBRANCH   3  16
BRANCH   9  18
ATOM     18  C   UNL     1      32.246  -1.797  22.150  0.00  0.00    -0.012 C 
BRANCH  18  19
ATOM     19  C   UNL     1      32.551  -0.835  23.332  0.00  0.00    +0.010 C 
BRANCH  19  20
ATOM     20  C   UNL     1      31.465  -0.904  24.441  0.00  0.00    +0.035 C 
BRANCH  20  21
ATOM     21  C   UNL     1      32.081  -0.707  25.806  0.00  0.00    -0.099 C 
BRANCH  21  22
ATOM     22  C   UNL     1      31.160  -0.387  26.959  0.00  0.00    +0.035 C 
BRANCH  22  23
ATOM     23  C   UNL     1      31.556  -1.171  28.239  0.00  0.00    +0.012 C 
BRANCH  23  24
ATOM     24  C   UNL     1      30.529  -2.293  28.559  0.00  0.00    +0.002 C 
BRANCH  24  25
ATOM     25  C   UNL     1      29.720  -2.695  27.295  0.00  0.00    +0.000 C 
BRANCH  25  26
ATOM     26  C   UNL     1      28.202  -2.424  27.483  0.00  0.00    -0.000 C 
BRANCH  26  27
ATOM     27  C   UNL     1      27.650  -1.501  26.362  0.00  0.00    -0.000 C 
BRANCH  27  28
ATOM     28  C   UNL     1      26.873  -0.294  26.955  0.00  0.00    -0.003 C 
ATOM     29  C   UNL     1      27.815   0.911  27.210  0.00  0.00    +0.004 C 
ENDBRANCH  27  28
ENDBRANCH  26  27
ENDBRANCH  25  26
ENDBRANCH  24  25
ENDBRANCH  23  24
ENDBRANCH  22  23
ENDBRANCH  21  22
ENDBRANCH  20  21
ENDBRANCH  19  20
ENDBRANCH  18  19
ENDBRANCH   9  18
BRANCH  10  30
ATOM     30  C   UNL     1      31.711  -4.441  23.150  0.00  0.00    +0.266 C 
BRANCH  30  31
ATOM     31  O   UNL     1      32.357  -4.412  24.325  0.00  0.00    -0.261 OA
ATOM     32  H   UNL     1      32.589  -3.536  24.615  0.00  0.00    +0.320 HD
ENDBRANCH  30  31
ENDBRANCH  10  30
TORSDOF 14
ENDMDL
MODEL 18
REMARK VINA RESULT:    -4.728      2.980      6.826
REMARK INTER + INTRA:          -9.727
REMARK INTER:                  -8.131
REMARK INTRA:                  -1.596
REMARK UNBOUND:                -1.405
REMARK  Name = 112
REMARK  16 active torsions:
REMARK  status: ('A' for Active; 'I' for Inactive)
REMARK    1  A    between atoms: C_3  and  O_4
REMARK    2  A    between atoms: C_5  and  C_17
REMARK    3  A    between atoms: C_5  and  C_56
REMARK    4  A    between atoms: C_15  and  C_20
REMARK    5  A    between atoms: C_15  and  C_23
REMARK    6  A    between atoms: C_16  and  C_17
REMARK    7  A    between atoms: C_23  and  O_25
REMARK    8  A    between atoms: C_27  and  C_28
REMARK    9  A    between atoms: C_27  and  C_56
REMARK   10  A    between atoms: C_28  and  C_30
REMARK   11  A    between atoms: C_30  and  C_32
REMARK   12  A    between atoms: C_32  and  C_47
REMARK   13  A    between atoms: C_47  and  C_48
REMARK   14  A    between atoms: C_48  and  C_49
REMARK   15  A    between atoms: C_49  and  C_50
REMARK   16  A    between atoms: C_50  and  C_51
REMARK                            x       y       z     vdW  Elec       q    Type
REMARK                         _______ _______ _______ _____ _____    ______ ____
ROOT
ATOM      1  C   UNL     1      34.928  -1.826  27.786  0.00  0.00    -0.024 A 
ATOM      2  C   UNL     1      36.303  -2.066  27.709  0.00  0.00    +0.000 A 
ATOM      3  C   UNL     1      37.160  -1.084  27.207  0.00  0.00    +0.074 A 
ATOM      4  C   UNL     1      36.618   0.119  26.743  0.00  0.00    +0.008 A 
ATOM      5  C   UNL     1      35.237   0.350  26.798  0.00  0.00    -0.049 A 
ATOM      6  C   UNL     1      34.698   1.638  26.164  0.00  0.00    +0.058 C 
ATOM      7  C   UNL     1      33.170   1.534  25.927  0.00  0.00    +0.017 C 
ATOM      8  C   UNL     1      32.483   1.127  27.258  0.00  0.00    -0.011 C 
ATOM      9  C   UNL     1      30.937   1.345  27.377  0.00  0.00    -0.066 C 
ATOM     10  C   UNL     1      30.517   1.157  28.884  0.00  0.00    -0.024 C 
ATOM     11  C   UNL     1      31.029   2.292  29.830  0.00  0.00    -0.096 C 
ATOM     12  C   UNL     1      31.003  -0.232  29.411  0.00  0.00    -0.079 C 
ATOM     13  C   UNL     1      32.513  -0.509  29.163  0.00  0.00    -0.004 C 
ATOM     14  C   UNL     1      32.895  -0.310  27.667  0.00  0.00    +0.028 C 
ATOM     15  C   UNL     1      34.392  -0.589  27.409  0.00  0.00    -0.049 A 
ENDROOT
BRANCH   3  16
ATOM     16  O   UNL     1      38.536  -1.328  27.177  0.00  0.00    -0.339 OA
ATOM     17  H   UNL     1      39.073  -0.545  27.196  0.00  0.00    +0.246 HD
ENDBRANCH   3  16
BRANCH   9  18
ATOM     18  C   UNL     1      30.015   0.490  26.432  0.00  0.00    -0.012 C 
BRANCH  18  19
ATOM     19  C   UNL     1      28.502   0.845  26.397  0.00  0.00    +0.010 C 
BRANCH  19  20
ATOM     20  C   UNL     1      27.610  -0.408  26.175  0.00  0.00    +0.035 C 
BRANCH  20  21
ATOM     21  C   UNL     1      27.115  -0.951  27.495  0.00  0.00    -0.099 C 
BRANCH  21  22
ATOM     22  C   UNL     1      27.292  -2.427  27.763  0.00  0.00    +0.035 C 
BRANCH  22  23
ATOM     23  C   UNL     1      28.786  -2.792  27.970  0.00  0.00    +0.012 C 
BRANCH  23  24
ATOM     24  C   UNL     1      29.464  -3.191  26.630  0.00  0.00    +0.002 C 
BRANCH  24  25
ATOM     25  C   UNL     1      31.012  -3.139  26.743  0.00  0.00    +0.000 C 
BRANCH  25  26
ATOM     26  C   UNL     1      31.693  -3.628  25.434  0.00  0.00    -0.000 C 
BRANCH  26  27
ATOM     27  C   UNL     1      32.959  -2.789  25.108  0.00  0.00    -0.000 C 
BRANCH  27  28
ATOM     28  C   UNL     1      32.612  -1.560  24.224  0.00  0.00    -0.003 C 
ATOM     29  C   UNL     1      31.254  -1.754  23.500  0.00  0.00    +0.004 C 
ENDBRANCH  27  28
ENDBRANCH  26  27
ENDBRANCH  25  26
ENDBRANCH  24  25
ENDBRANCH  23  24
ENDBRANCH  22  23
ENDBRANCH  21  22
ENDBRANCH  20  21
ENDBRANCH  19  20
ENDBRANCH  18  19
ENDBRANCH   9  18
BRANCH  10  30
ATOM     30  C   UNL     1      29.008   1.225  29.025  0.00  0.00    +0.266 C 
BRANCH  30  31
ATOM     31  O   UNL     1      28.477   2.433  28.785  0.00  0.00    -0.261 OA
ATOM     32  H   UNL     1      28.549   2.711  27.878  0.00  0.00    +0.320 HD
ENDBRANCH  30  31
ENDBRANCH  10  30
TORSDOF 14
ENDMDL
MODEL 19
REMARK VINA RESULT:    -4.696      3.187      9.385
REMARK INTER + INTRA:          -9.670
REMARK INTER:                  -9.172
REMARK INTRA:                  -0.498
REMARK UNBOUND:                -1.405
REMARK  Name = 112
REMARK  16 active torsions:
REMARK  status: ('A' for Active; 'I' for Inactive)
REMARK    1  A    between atoms: C_3  and  O_4
REMARK    2  A    between atoms: C_5  and  C_17
REMARK    3  A    between atoms: C_5  and  C_56
REMARK    4  A    between atoms: C_15  and  C_20
REMARK    5  A    between atoms: C_15  and  C_23
REMARK    6  A    between atoms: C_16  and  C_17
REMARK    7  A    between atoms: C_23  and  O_25
REMARK    8  A    between atoms: C_27  and  C_28
REMARK    9  A    between atoms: C_27  and  C_56
REMARK   10  A    between atoms: C_28  and  C_30
REMARK   11  A    between atoms: C_30  and  C_32
REMARK   12  A    between atoms: C_32  and  C_47
REMARK   13  A    between atoms: C_47  and  C_48
REMARK   14  A    between atoms: C_48  and  C_49
REMARK   15  A    between atoms: C_49  and  C_50
REMARK   16  A    between atoms: C_50  and  C_51
REMARK                            x       y       z     vdW  Elec       q    Type
REMARK                         _______ _______ _______ _____ _____    ______ ____
ROOT
ATOM      1  C   UNL     1      32.149  -3.403  17.245  0.00  0.00    -0.024 A 
ATOM      2  C   UNL     1      32.579  -3.533  15.922  0.00  0.00    +0.000 A 
ATOM      3  C   UNL     1      33.910  -3.273  15.587  0.00  0.00    +0.074 A 
ATOM      4  C   UNL     1      34.789  -2.839  16.584  0.00  0.00    +0.008 A 
ATOM      5  C   UNL     1      34.353  -2.686  17.906  0.00  0.00    -0.049 A 
ATOM      6  C   UNL     1      35.336  -2.093  18.923  0.00  0.00    +0.058 C 
ATOM      7  C   UNL     1      34.585  -1.597  20.186  0.00  0.00    +0.017 C 
ATOM      8  C   UNL     1      33.703  -2.752  20.729  0.00  0.00    -0.011 C 
ATOM      9  C   UNL     1      33.169  -2.633  22.197  0.00  0.00    -0.066 C 
ATOM     10  C   UNL     1      32.572  -4.026  22.630  0.00  0.00    -0.024 C 
ATOM     11  C   UNL     1      33.649  -5.145  22.819  0.00  0.00    -0.096 C 
ATOM     12  C   UNL     1      31.494  -4.495  21.600  0.00  0.00    -0.079 C 
ATOM     13  C   UNL     1      31.980  -4.476  20.123  0.00  0.00    -0.004 C 
ATOM     14  C   UNL     1      32.567  -3.089  19.730  0.00  0.00    +0.028 C 
ATOM     15  C   UNL     1      33.048  -3.059  18.262  0.00  0.00    -0.049 A 
ENDROOT
BRANCH   3  16
ATOM     16  O   UNL     1      34.329  -3.448  14.265  0.00  0.00    -0.339 OA
ATOM     17  H   UNL     1      34.013  -4.247  13.857  0.00  0.00    +0.246 HD
ENDBRANCH   3  16
BRANCH   9  18
ATOM     18  C   UNL     1      32.150  -1.474  22.500  0.00  0.00    -0.012 C 
BRANCH  18  19
ATOM     19  C   UNL     1      32.012  -1.011  23.978  0.00  0.00    +0.010 C 
BRANCH  19  20
ATOM     20  C   UNL     1      30.528  -0.941  24.434  0.00  0.00    +0.035 C 
BRANCH  20  21
ATOM     21  C   UNL     1      30.428  -0.408  25.845  0.00  0.00    -0.099 C 
BRANCH  21  22
ATOM     22  C   UNL     1      31.680  -0.398  26.687  0.00  0.00    +0.035 C 
BRANCH  22  23
ATOM     23  C   UNL     1      31.586   0.644  27.835  0.00  0.00    +0.012 C 
BRANCH  23  24
ATOM     24  C   UNL     1      32.426   1.913  27.520  0.00  0.00    +0.002 C 
BRANCH  24  25
ATOM     25  C   UNL     1      33.444   1.647  26.378  0.00  0.00    +0.000 C 
BRANCH  25  26
ATOM     26  C   UNL     1      34.777   1.069  26.928  0.00  0.00    -0.000 C 
BRANCH  26  27
ATOM     27  C   UNL     1      35.247   1.838  28.193  0.00  0.00    -0.000 C 
BRANCH  27  28
ATOM     28  C   UNL     1      35.055   0.986  29.477  0.00  0.00    -0.003 C 
ATOM     29  C   UNL     1      35.636  -0.441  29.299  0.00  0.00    +0.004 C 
ENDBRANCH  27  28
ENDBRANCH  26  27
ENDBRANCH  25  26
ENDBRANCH  24  25
ENDBRANCH  23  24
ENDBRANCH  22  23
ENDBRANCH  21  22
ENDBRANCH  20  21
ENDBRANCH  19  20
ENDBRANCH  18  19
ENDBRANCH   9  18
BRANCH  10  30
ATOM     30  C   UNL     1      31.921  -3.921  23.996  0.00  0.00    +0.266 C 
BRANCH  30  31
ATOM     31  O   UNL     1      32.726  -4.220  25.026  0.00  0.00    -0.261 OA
ATOM     32  H   UNL     1      33.552  -3.748  25.018  0.00  0.00    +0.320 HD
ENDBRANCH  30  31
ENDBRANCH  10  30
TORSDOF 14
ENDMDL
MODEL 20
REMARK VINA RESULT:    -4.357      2.568      6.238
REMARK INTER + INTRA:          -9.073
REMARK INTER:                  -7.668
REMARK INTRA:                  -1.405
REMARK UNBOUND:                -1.405
REMARK  Name = 112
REMARK  16 active torsions:
REMARK  status: ('A' for Active; 'I' for Inactive)
REMARK    1  A    between atoms: C_3  and  O_4
REMARK    2  A    between atoms: C_5  and  C_17
REMARK    3  A    between atoms: C_5  and  C_56
REMARK    4  A    between atoms: C_15  and  C_20
REMARK    5  A    between atoms: C_15  and  C_23
REMARK    6  A    between atoms: C_16  and  C_17
REMARK    7  A    between atoms: C_23  and  O_25
REMARK    8  A    between atoms: C_27  and  C_28
REMARK    9  A    between atoms: C_27  and  C_56
REMARK   10  A    between atoms: C_28  and  C_30
REMARK   11  A    between atoms: C_30  and  C_32
REMARK   12  A    between atoms: C_32  and  C_47
REMARK   13  A    between atoms: C_47  and  C_48
REMARK   14  A    between atoms: C_48  and  C_49
REMARK   15  A    between atoms: C_49  and  C_50
REMARK   16  A    between atoms: C_50  and  C_51
REMARK                            x       y       z     vdW  Elec       q    Type
REMARK                         _______ _______ _______ _____ _____    ______ ____
ROOT
ATOM      1  C   UNL     1      37.195  -1.512  29.283  0.00  0.00    -0.024 A 
ATOM      2  C   UNL     1      38.460  -1.960  28.896  0.00  0.00    +0.000 A 
ATOM      3  C   UNL     1      38.733  -2.218  27.551  0.00  0.00    +0.074 A 
ATOM      4  C   UNL     1      37.711  -2.065  26.609  0.00  0.00    +0.008 A 
ATOM      5  C   UNL     1      36.435  -1.639  26.999  0.00  0.00    -0.049 A 
ATOM      6  C   UNL     1      35.331  -1.608  25.936  0.00  0.00    +0.058 C 
ATOM      7  C   UNL     1      33.932  -1.542  26.601  0.00  0.00    +0.017 C 
ATOM      8  C   UNL     1      33.908  -0.355  27.599  0.00  0.00    -0.011 C 
ATOM      9  C   UNL     1      32.511   0.159  28.088  0.00  0.00    -0.066 C 
ATOM     10  C   UNL     1      32.713   1.533  28.833  0.00  0.00    -0.024 C 
ATOM     11  C   UNL     1      33.124   2.710  27.889  0.00  0.00    -0.096 C 
ATOM     12  C   UNL     1      33.766   1.378  29.977  0.00  0.00    -0.079 C 
ATOM     13  C   UNL     1      35.106   0.733  29.520  0.00  0.00    -0.004 C 
ATOM     14  C   UNL     1      34.871  -0.619  28.785  0.00  0.00    +0.028 C 
ATOM     15  C   UNL     1      36.196  -1.269  28.332  0.00  0.00    -0.049 A 
ENDROOT
BRANCH   3  16
ATOM     16  O   UNL     1      40.018  -2.626  27.180  0.00  0.00    -0.339 OA
ATOM     17  H   UNL     1      40.130  -3.568  27.130  0.00  0.00    +0.246 HD
ENDBRANCH   3  16
BRANCH   9  18
ATOM     18  C   UNL     1      31.648  -0.825  28.961  0.00  0.00    -0.012 C 
BRANCH  18  19
ATOM     19  C   UNL     1      30.392  -1.456  28.297  0.00  0.00    +0.010 C 
BRANCH  19  20
ATOM     20  C   UNL     1      30.164  -0.928  26.853  0.00  0.00    +0.035 C 
BRANCH  20  21
ATOM     21  C   UNL     1      30.563  -1.969  25.834  0.00  0.00    -0.099 C 
BRANCH  21  22
ATOM     22  C   UNL     1      31.103  -1.490  24.507  0.00  0.00    +0.035 C 
BRANCH  22  23
ATOM     23  C   UNL     1      32.098  -2.512  23.895  0.00  0.00    +0.012 C 
BRANCH  23  24
ATOM     24  C   UNL     1      32.301  -2.266  22.374  0.00  0.00    +0.002 C 
BRANCH  24  25
ATOM     25  C   UNL     1      33.387  -3.209  21.790  0.00  0.00    +0.000 C 
BRANCH  25  26
ATOM     26  C   UNL     1      33.996  -2.631  20.482  0.00  0.00    -0.000 C 
BRANCH  26  27
ATOM     27  C   UNL     1      33.465  -3.383  19.231  0.00  0.00    -0.000 C 
BRANCH  27  28
ATOM     28  C   UNL     1      33.114  -2.396  18.085  0.00  0.00    -0.003 C 
ATOM     29  C   UNL     1      31.610  -2.476  17.713  0.00  0.00    +0.004 C 
ENDBRANCH  27  28
ENDBRANCH  26  27
ENDBRANCH  25  26
ENDBRANCH  24  25
ENDBRANCH  23  24
ENDBRANCH  22  23
ENDBRANCH  21  22
ENDBRANCH  20  21
ENDBRANCH  19  20
ENDBRANCH  18  19
ENDBRANCH   9  18
BRANCH  10  30
ATOM     30  C   UNL     1      31.405   2.001  29.442  0.00  0.00    +0.266 C 
BRANCH  30  31
ATOM     31  O   UNL     1      30.410   2.186  28.561  0.00  0.00    -0.261 OA
ATOM     32  H   UNL     1      30.489   2.987  28.054  0.00  0.00    +0.320 HD
ENDBRANCH  30  31
ENDBRANCH  10  30
TORSDOF 14
ENDMDL
