MODEL 1
REMARK VINA RESULT:    -6.670      0.000      0.000
REMARK INTER + INTRA:          -7.134
REMARK INTER:                  -8.404
REMARK INTRA:                   1.270
REMARK UNBOUND:                 0.900
REMARK  Name = 303
REMARK  5 active torsions:
REMARK  status: ('A' for Active; 'I' for Inactive)
REMARK    1  A    between atoms: C_3  and  O_4
REMARK    2  A    between atoms: C_5  and  C_17
REMARK    3  A    between atoms: C_15  and  C_20
REMARK    4  A    between atoms: C_15  and  C_23
REMARK    5  A    between atoms: C_16  and  C_17
REMARK                            x       y       z     vdW  Elec       q    Type
REMARK                         _______ _______ _______ _____ _____    ______ ____
ROOT
ATOM      1  C   UNL     1      29.451   0.663  26.120  0.00  0.00    -0.024 A 
ATOM      2  C   UNL     1      28.114   1.051  26.240  0.00  0.00    +0.000 A 
ATOM      3  C   UNL     1      27.230   0.296  27.010  0.00  0.00    +0.074 A 
ATOM      4  C   UNL     1      27.696  -0.866  27.633  0.00  0.00    +0.008 A 
ATOM      5  C   UNL     1      29.035  -1.257  27.510  0.00  0.00    -0.049 A 
ATOM      6  C   UNL     1      29.445  -2.589  28.148  0.00  0.00    +0.058 C 
ATOM      7  C   UNL     1      30.845  -3.048  27.672  0.00  0.00    +0.018 C 
ATOM      8  C   UNL     1      31.837  -1.867  27.822  0.00  0.00    +0.000 C 
ATOM      9  C   UNL     1      33.347  -2.278  27.764  0.00  0.00    -0.004 C 
ATOM     10  C   UNL     1      34.260  -1.027  28.006  0.00  0.00    +0.006 C 
ATOM     11  C   UNL     1      34.207  -0.504  29.478  0.00  0.00    -0.039 C 
ATOM     12  C   UNL     1      33.865   0.106  27.012  0.00  0.00    -0.032 C 
ATOM     13  C   UNL     1      32.357   0.481  27.056  0.00  0.00    +0.006 C 
ATOM     14  C   UNL     1      31.462  -0.762  26.793  0.00  0.00    +0.030 C 
ATOM     15  C   UNL     1      29.948  -0.446  26.816  0.00  0.00    -0.048 A 
ENDROOT
BRANCH  10  16
ATOM     16  C   UNL     1      35.718  -1.384  27.780  0.00  0.00    +0.114 A 
ATOM     17  N   UNL     1      36.302  -1.418  26.610  0.00  0.00    -0.246 N 
ATOM     18  C   UNL     1      37.589  -1.775  26.836  0.00  0.00    +0.109 A 
ATOM     19  C   UNL     1      37.737  -1.945  28.203  0.00  0.00    +0.090 A 
ATOM     20  C   UNL     1      38.940  -2.312  28.800  0.00  0.00    +0.030 A 
ATOM     21  C   UNL     1      40.018  -2.506  27.924  0.00  0.00    -0.002 A 
ATOM     22  C   UNL     1      39.876  -2.339  26.535  0.00  0.00    +0.007 A 
ATOM     23  C   UNL     1      38.653  -1.968  25.956  0.00  0.00    +0.037 A 
ATOM     24  H   UNL     1      35.876  -1.216  25.695  0.00  0.00    +0.235 HD
ATOM     25  N   UNL     1      36.527  -1.683  28.711  0.00  0.00    -0.247 NA
ENDBRANCH  10  16
BRANCH   3  26
ATOM     26  O   UNL     1      25.902   0.714  27.136  0.00  0.00    -0.339 OA
ATOM     27  H   UNL     1      25.701   1.525  26.684  0.00  0.00    +0.246 HD
ENDBRANCH   3  26
BRANCH   9  28
ATOM     28  C   UNL     1      33.737  -3.059  26.466  0.00  0.00    +0.179 C 
BRANCH  28  29
ATOM     29  C   UNL     1      32.964  -2.634  25.305  0.00  0.00    +0.089 C 
ATOM     30  N   UNL     1      32.351  -2.299  24.382  0.00  0.00    -0.304 NA
ENDBRANCH  28  29
ENDBRANCH   9  28
TORSDOF 4
ENDMDL
MODEL 2
REMARK VINA RESULT:    -5.930      1.531      2.362
REMARK INTER + INTRA:          -6.244
REMARK INTER:                  -7.733
REMARK INTRA:                   1.489
REMARK UNBOUND:                 0.900
REMARK  Name = 303
REMARK  5 active torsions:
REMARK  status: ('A' for Active; 'I' for Inactive)
REMARK    1  A    between atoms: C_3  and  O_4
REMARK    2  A    between atoms: C_5  and  C_17
REMARK    3  A    between atoms: C_15  and  C_20
REMARK    4  A    between atoms: C_15  and  C_23
REMARK    5  A    between atoms: C_16  and  C_17
REMARK                            x       y       z     vdW  Elec       q    Type
REMARK                         _______ _______ _______ _____ _____    ______ ____
ROOT
ATOM      1  C   UNL     1      29.576   0.052  26.496  0.00  0.00    -0.024 A 
ATOM      2  C   UNL     1      28.337   0.691  26.405  0.00  0.00    +0.000 A 
ATOM      3  C   UNL     1      27.911   1.547  27.421  0.00  0.00    +0.074 A 
ATOM      4  C   UNL     1      28.731   1.732  28.539  0.00  0.00    +0.008 A 
ATOM      5  C   UNL     1      29.971   1.088  28.632  0.00  0.00    -0.049 A 
ATOM      6  C   UNL     1      30.768   1.271  29.929  0.00  0.00    +0.058 C 
ATOM      7  C   UNL     1      31.944   0.270  30.028  0.00  0.00    +0.018 C 
ATOM      8  C   UNL     1      32.747   0.308  28.704  0.00  0.00    +0.000 C 
ATOM      9  C   UNL     1      34.172  -0.336  28.791  0.00  0.00    -0.004 C 
ATOM     10  C   UNL     1      34.926  -0.171  27.426  0.00  0.00    +0.006 C 
ATOM     11  C   UNL     1      35.346   1.304  27.131  0.00  0.00    -0.039 C 
ATOM     12  C   UNL     1      34.041  -0.727  26.271  0.00  0.00    -0.032 C 
ATOM     13  C   UNL     1      32.618  -0.103  26.216  0.00  0.00    +0.006 C 
ATOM     14  C   UNL     1      31.870  -0.292  27.567  0.00  0.00    +0.030 C 
ATOM     15  C   UNL     1      30.443   0.304  27.568  0.00  0.00    -0.048 A 
ENDROOT
BRANCH  10  16
ATOM     16  C   UNL     1      36.234  -0.943  27.448  0.00  0.00    +0.114 A 
ATOM     17  N   UNL     1      36.840  -1.348  28.534  0.00  0.00    -0.246 N 
ATOM     18  C   UNL     1      37.960  -1.992  28.128  0.00  0.00    +0.109 A 
ATOM     19  C   UNL     1      37.983  -1.951  26.744  0.00  0.00    +0.090 A 
ATOM     20  C   UNL     1      38.996  -2.522  25.979  0.00  0.00    +0.030 A 
ATOM     21  C   UNL     1      40.018  -3.155  26.703  0.00  0.00    -0.002 A 
ATOM     22  C   UNL     1      40.006  -3.199  28.108  0.00  0.00    +0.007 A 
ATOM     23  C   UNL     1      38.972  -2.616  28.856  0.00  0.00    +0.037 A 
ATOM     24  H   UNL     1      36.533  -1.211  29.507  0.00  0.00    +0.235 HD
ATOM     25  N   UNL     1      36.874  -1.281  26.405  0.00  0.00    -0.247 NA
ENDBRANCH  10  16
BRANCH   3  26
ATOM     26  O   UNL     1      26.678   2.194  27.299  0.00  0.00    -0.339 OA
ATOM     27  H   UNL     1      26.193   2.271  28.113  0.00  0.00    +0.246 HD
ENDBRANCH   3  26
BRANCH   9  28
ATOM     28  C   UNL     1      34.162  -1.818  29.292  0.00  0.00    +0.179 C 
BRANCH  28  29
ATOM     29  C   UNL     1      33.405  -2.701  28.413  0.00  0.00    +0.089 C 
ATOM     30  N   UNL     1      32.806  -3.403  27.714  0.00  0.00    -0.304 NA
ENDBRANCH  28  29
ENDBRANCH   9  28
TORSDOF 4
ENDMDL
MODEL 3
REMARK VINA RESULT:    -5.817      4.336      6.826
REMARK INTER + INTRA:          -6.108
REMARK INTER:                  -6.113
REMARK INTRA:                   0.005
REMARK UNBOUND:                 0.900
REMARK  Name = 303
REMARK  5 active torsions:
REMARK  status: ('A' for Active; 'I' for Inactive)
REMARK    1  A    between atoms: C_3  and  O_4
REMARK    2  A    between atoms: C_5  and  C_17
REMARK    3  A    between atoms: C_15  and  C_20
REMARK    4  A    between atoms: C_15  and  C_23
REMARK    5  A    between atoms: C_16  and  C_17
REMARK                            x       y       z     vdW  Elec       q    Type
REMARK                         _______ _______ _______ _____ _____    ______ ____
ROOT
ATOM      1  C   UNL     1      33.648  -1.966  20.421  0.00  0.00    -0.024 A 
ATOM      2  C   UNL     1      33.603  -2.448  19.110  0.00  0.00    +0.000 A 
ATOM      3  C   UNL     1      32.969  -3.658  18.827  0.00  0.00    +0.074 A 
ATOM      4  C   UNL     1      32.407  -4.390  19.877  0.00  0.00    +0.008 A 
ATOM      5  C   UNL     1      32.455  -3.909  21.192  0.00  0.00    -0.049 A 
ATOM      6  C   UNL     1      31.897  -4.813  22.297  0.00  0.00    +0.058 C 
ATOM      7  C   UNL     1      32.296  -4.313  23.706  0.00  0.00    +0.018 C 
ATOM      8  C   UNL     1      31.974  -2.800  23.810  0.00  0.00    +0.000 C 
ATOM      9  C   UNL     1      31.945  -2.243  25.274  0.00  0.00    -0.004 C 
ATOM     10  C   UNL     1      31.531  -0.731  25.271  0.00  0.00    +0.006 C 
ATOM     11  C   UNL     1      30.031  -0.506  24.897  0.00  0.00    -0.039 C 
ATOM     12  C   UNL     1      32.458   0.061  24.301  0.00  0.00    -0.032 C 
ATOM     13  C   UNL     1      32.503  -0.522  22.861  0.00  0.00    +0.006 C 
ATOM     14  C   UNL     1      32.936  -2.015  22.874  0.00  0.00    +0.030 C 
ATOM     15  C   UNL     1      33.007  -2.647  21.464  0.00  0.00    -0.048 A 
ENDROOT
BRANCH  10  16
ATOM     16  C   UNL     1      31.670  -0.142  26.664  0.00  0.00    +0.114 A 
ATOM     17  N   UNL     1      30.717  -0.117  27.559  0.00  0.00    -0.246 N 
ATOM     18  C   UNL     1      31.238   0.486  28.654  0.00  0.00    +0.109 A 
ATOM     19  C   UNL     1      32.553   0.811  28.362  0.00  0.00    +0.090 A 
ATOM     20  C   UNL     1      33.402   1.444  29.265  0.00  0.00    +0.030 A 
ATOM     21  C   UNL     1      32.843   1.742  30.517  0.00  0.00    -0.002 A 
ATOM     22  C   UNL     1      31.509   1.419  30.822  0.00  0.00    +0.007 A 
ATOM     23  C   UNL     1      30.672   0.780  29.894  0.00  0.00    +0.037 A 
ATOM     24  H   UNL     1      29.759  -0.480  27.460  0.00  0.00    +0.235 HD
ATOM     25  N   UNL     1      32.737   0.386  27.105  0.00  0.00    -0.247 NA
ENDBRANCH  10  16
BRANCH   3  26
ATOM     26  O   UNL     1      32.915  -4.110  17.505  0.00  0.00    -0.339 OA
ATOM     27  H   UNL     1      33.094  -5.037  17.400  0.00  0.00    +0.246 HD
ENDBRANCH   3  26
BRANCH   9  28
ATOM     28  C   UNL     1      33.267  -2.498  26.070  0.00  0.00    +0.179 C 
BRANCH  28  29
ATOM     29  C   UNL     1      33.321  -3.834  26.651  0.00  0.00    +0.089 C 
ATOM     30  N   UNL     1      33.363  -4.896  27.111  0.00  0.00    -0.304 NA
ENDBRANCH  28  29
ENDBRANCH   9  28
TORSDOF 4
ENDMDL
MODEL 4
REMARK VINA RESULT:    -4.966      3.516      6.290
REMARK INTER + INTRA:          -5.082
REMARK INTER:                  -6.146
REMARK INTRA:                   1.064
REMARK UNBOUND:                 0.900
REMARK  Name = 303
REMARK  5 active torsions:
REMARK  status: ('A' for Active; 'I' for Inactive)
REMARK    1  A    between atoms: C_3  and  O_4
REMARK    2  A    between atoms: C_5  and  C_17
REMARK    3  A    between atoms: C_15  and  C_20
REMARK    4  A    between atoms: C_15  and  C_23
REMARK    5  A    between atoms: C_16  and  C_17
REMARK                            x       y       z     vdW  Elec       q    Type
REMARK                         _______ _______ _______ _____ _____    ______ ____
ROOT
ATOM      1  C   UNL     1      30.820   0.552  29.371  0.00  0.00    -0.024 A 
ATOM      2  C   UNL     1      30.854   1.358  30.512  0.00  0.00    +0.000 A 
ATOM      3  C   UNL     1      32.075   1.791  31.030  0.00  0.00    +0.074 A 
ATOM      4  C   UNL     1      33.258   1.384  30.406  0.00  0.00    +0.008 A 
ATOM      5  C   UNL     1      33.224   0.573  29.265  0.00  0.00    -0.049 A 
ATOM      6  C   UNL     1      34.565   0.096  28.695  0.00  0.00    +0.058 C 
ATOM      7  C   UNL     1      34.379  -1.030  27.650  0.00  0.00    +0.018 C 
ATOM      8  C   UNL     1      33.301  -0.591  26.627  0.00  0.00    +0.000 C 
ATOM      9  C   UNL     1      33.284  -1.429  25.304  0.00  0.00    -0.004 C 
ATOM     10  C   UNL     1      32.217  -0.852  24.310  0.00  0.00    +0.006 C 
ATOM     11  C   UNL     1      32.621   0.535  23.713  0.00  0.00    -0.039 C 
ATOM     12  C   UNL     1      30.837  -0.754  25.026  0.00  0.00    -0.032 C 
ATOM     13  C   UNL     1      30.875   0.052  26.354  0.00  0.00    +0.006 C 
ATOM     14  C   UNL     1      31.920  -0.542  27.341  0.00  0.00    +0.030 C 
ATOM     15  C   UNL     1      31.996   0.217  28.686  0.00  0.00    -0.048 A 
ENDROOT
BRANCH  10  16
ATOM     16  C   UNL     1      32.073  -1.760  23.102  0.00  0.00    +0.114 A 
ATOM     17  N   UNL     1      30.932  -2.137  22.587  0.00  0.00    -0.246 N 
ATOM     18  C   UNL     1      31.233  -2.934  21.533  0.00  0.00    +0.109 A 
ATOM     19  C   UNL     1      32.614  -3.004  21.449  0.00  0.00    +0.090 A 
ATOM     20  C   UNL     1      33.283  -3.739  20.474  0.00  0.00    +0.030 A 
ATOM     21  C   UNL     1      32.465  -4.420  19.561  0.00  0.00    -0.002 A 
ATOM     22  C   UNL     1      31.063  -4.357  19.639  0.00  0.00    +0.007 A 
ATOM     23  C   UNL     1      30.412  -3.609  20.632  0.00  0.00    +0.037 A 
ATOM     24  H   UNL     1      29.989  -1.883  22.910  0.00  0.00    +0.235 HD
ATOM     25  N   UNL     1      33.056  -2.248  22.462  0.00  0.00    -0.247 NA
ENDBRANCH  10  16
BRANCH   3  26
ATOM     26  O   UNL     1      32.086   2.616  32.159  0.00  0.00    -0.339 OA
ATOM     27  H   UNL     1      32.954   2.846  32.468  0.00  0.00    +0.246 HD
ENDBRANCH   3  26
BRANCH   9  28
ATOM     28  C   UNL     1      33.112  -2.966  25.536  0.00  0.00    +0.179 C 
BRANCH  28  29
ATOM     29  C   UNL     1      31.873  -3.292  26.232  0.00  0.00    +0.089 C 
ATOM     30  N   UNL     1      30.888  -3.549  26.783  0.00  0.00    -0.304 NA
ENDBRANCH  28  29
ENDBRANCH   9  28
TORSDOF 4
ENDMDL
MODEL 5
REMARK VINA RESULT:    -4.885      3.498      8.402
REMARK INTER + INTRA:          -4.985
REMARK INTER:                  -4.844
REMARK INTRA:                  -0.141
REMARK UNBOUND:                 0.900
REMARK  Name = 303
REMARK  5 active torsions:
REMARK  status: ('A' for Active; 'I' for Inactive)
REMARK    1  A    between atoms: C_3  and  O_4
REMARK    2  A    between atoms: C_5  and  C_17
REMARK    3  A    between atoms: C_15  and  C_20
REMARK    4  A    between atoms: C_15  and  C_23
REMARK    5  A    between atoms: C_16  and  C_17
REMARK                            x       y       z     vdW  Elec       q    Type
REMARK                         _______ _______ _______ _____ _____    ______ ____
ROOT
ATOM      1  C   UNL     1      36.666  -1.573  26.112  0.00  0.00    -0.024 A 
ATOM      2  C   UNL     1      38.017  -1.926  26.148  0.00  0.00    +0.000 A 
ATOM      3  C   UNL     1      38.672  -2.079  27.370  0.00  0.00    +0.074 A 
ATOM      4  C   UNL     1      37.961  -1.847  28.552  0.00  0.00    +0.008 A 
ATOM      5  C   UNL     1      36.607  -1.490  28.516  0.00  0.00    -0.049 A 
ATOM      6  C   UNL     1      35.925  -1.165  29.850  0.00  0.00    +0.058 C 
ATOM      7  C   UNL     1      34.549  -0.488  29.642  0.00  0.00    +0.018 C 
ATOM      8  C   UNL     1      33.730  -1.319  28.622  0.00  0.00    +0.000 C 
ATOM      9  C   UNL     1      32.197  -0.999  28.608  0.00  0.00    -0.004 C 
ATOM     10  C   UNL     1      31.454  -1.948  27.605  0.00  0.00    +0.006 C 
ATOM     11  C   UNL     1      31.387  -3.430  28.097  0.00  0.00    -0.039 C 
ATOM     12  C   UNL     1      32.139  -1.870  26.208  0.00  0.00    -0.032 C 
ATOM     13  C   UNL     1      33.666  -2.157  26.242  0.00  0.00    +0.006 C 
ATOM     14  C   UNL     1      34.397  -1.196  27.222  0.00  0.00    +0.030 C 
ATOM     15  C   UNL     1      35.923  -1.431  27.291  0.00  0.00    -0.048 A 
ENDROOT
BRANCH  10  16
ATOM     16  C   UNL     1      30.002  -1.529  27.456  0.00  0.00    +0.114 A 
ATOM     17  N   UNL     1      29.583  -0.564  26.680  0.00  0.00    -0.246 N 
ATOM     18  C   UNL     1      28.238  -0.509  26.832  0.00  0.00    +0.109 A 
ATOM     19  C   UNL     1      27.883  -1.497  27.735  0.00  0.00    +0.090 A 
ATOM     20  C   UNL     1      26.569  -1.735  28.129  0.00  0.00    +0.030 A 
ATOM     21  C   UNL     1      25.602  -0.901  27.549  0.00  0.00    -0.002 A 
ATOM     22  C   UNL     1      25.953   0.107  26.634  0.00  0.00    +0.007 A 
ATOM     23  C   UNL     1      27.285   0.327  26.252  0.00  0.00    +0.037 A 
ATOM     24  H   UNL     1      30.154   0.039  26.072  0.00  0.00    +0.235 HD
ATOM     25  N   UNL     1      29.039  -2.081  28.073  0.00  0.00    -0.247 NA
ENDBRANCH  10  16
BRANCH   3  26
ATOM     26  O   UNL     1      40.018  -2.455  27.385  0.00  0.00    -0.339 OA
ATOM     27  H   UNL     1      40.450  -2.401  26.540  0.00  0.00    +0.246 HD
ENDBRANCH   3  26
BRANCH   9  28
ATOM     28  C   UNL     1      31.872   0.510  28.352  0.00  0.00    +0.179 C 
BRANCH  28  29
ATOM     29  C   UNL     1      31.601   1.240  29.585  0.00  0.00    +0.089 C 
ATOM     30  N   UNL     1      31.388   1.820  30.563  0.00  0.00    -0.304 NA
ENDBRANCH  28  29
ENDBRANCH   9  28
TORSDOF 4
ENDMDL
MODEL 6
REMARK VINA RESULT:    -3.785      6.129      8.566
REMARK INTER + INTRA:          -3.660
REMARK INTER:                  -4.563
REMARK INTRA:                   0.903
REMARK UNBOUND:                 0.900
REMARK  Name = 303
REMARK  5 active torsions:
REMARK  status: ('A' for Active; 'I' for Inactive)
REMARK    1  A    between atoms: C_3  and  O_4
REMARK    2  A    between atoms: C_5  and  C_17
REMARK    3  A    between atoms: C_15  and  C_20
REMARK    4  A    between atoms: C_15  and  C_23
REMARK    5  A    between atoms: C_16  and  C_17
REMARK                            x       y       z     vdW  Elec       q    Type
REMARK                         _______ _______ _______ _____ _____    ______ ____
ROOT
ATOM      1  C   UNL     1      32.559  -4.094  25.285  0.00  0.00    -0.024 A 
ATOM      2  C   UNL     1      31.995  -4.048  26.563  0.00  0.00    +0.000 A 
ATOM      3  C   UNL     1      31.396  -2.875  27.025  0.00  0.00    +0.074 A 
ATOM      4  C   UNL     1      31.395  -1.745  26.201  0.00  0.00    +0.008 A 
ATOM      5  C   UNL     1      31.964  -1.791  24.922  0.00  0.00    -0.049 A 
ATOM      6  C   UNL     1      32.003  -0.486  24.118  0.00  0.00    +0.058 C 
ATOM      7  C   UNL     1      32.926  -0.599  22.881  0.00  0.00    +0.018 C 
ATOM      8  C   UNL     1      32.564  -1.889  22.103  0.00  0.00    +0.000 C 
ATOM      9  C   UNL     1      33.121  -1.941  20.640  0.00  0.00    -0.004 C 
ATOM     10  C   UNL     1      32.631  -3.244  19.918  0.00  0.00    +0.006 C 
ATOM     11  C   UNL     1      31.102  -3.228  19.595  0.00  0.00    -0.039 C 
ATOM     12  C   UNL     1      32.990  -4.487  20.786  0.00  0.00    -0.032 C 
ATOM     13  C   UNL     1      32.460  -4.408  22.245  0.00  0.00    +0.006 C 
ATOM     14  C   UNL     1      32.970  -3.124  22.958  0.00  0.00    +0.030 C 
ATOM     15  C   UNL     1      32.480  -2.996  24.419  0.00  0.00    -0.048 A 
ENDROOT
BRANCH  10  16
ATOM     16  C   UNL     1      33.306  -3.386  18.566  0.00  0.00    +0.114 A 
ATOM     17  N   UNL     1      34.600  -3.421  18.381  0.00  0.00    -0.246 N 
ATOM     18  C   UNL     1      34.792  -3.555  17.047  0.00  0.00    +0.109 A 
ATOM     19  C   UNL     1      33.541  -3.603  16.452  0.00  0.00    +0.090 A 
ATOM     20  C   UNL     1      33.354  -3.741  15.079  0.00  0.00    +0.030 A 
ATOM     21  C   UNL     1      34.525  -3.831  14.313  0.00  0.00    -0.002 A 
ATOM     22  C   UNL     1      35.799  -3.781  14.907  0.00  0.00    +0.007 A 
ATOM     23  C   UNL     1      35.962  -3.641  16.294  0.00  0.00    +0.037 A 
ATOM     24  H   UNL     1      35.334  -3.360  19.100  0.00  0.00    +0.235 HD
ATOM     25  N   UNL     1      32.677  -3.490  17.468  0.00  0.00    -0.247 NA
ENDBRANCH  10  16
BRANCH   3  26
ATOM     26  O   UNL     1      30.817  -2.857  28.297  0.00  0.00    -0.339 OA
ATOM     27  H   UNL     1      31.001  -3.627  28.823  0.00  0.00    +0.246 HD
ENDBRANCH   3  26
BRANCH   9  28
ATOM     28  C   UNL     1      34.672  -1.758  20.550  0.00  0.00    +0.179 C 
BRANCH  28  29
ATOM     29  C   UNL     1      35.069  -0.871  19.463  0.00  0.00    +0.089 C 
ATOM     30  N   UNL     1      35.385  -0.166  18.601  0.00  0.00    -0.304 NA
ENDBRANCH  28  29
ENDBRANCH   9  28
TORSDOF 4
ENDMDL
MODEL 7
REMARK VINA RESULT:    -3.753      3.613      5.860
REMARK INTER + INTRA:          -3.621
REMARK INTER:                  -5.069
REMARK INTRA:                   1.448
REMARK UNBOUND:                 0.900
REMARK  Name = 303
REMARK  5 active torsions:
REMARK  status: ('A' for Active; 'I' for Inactive)
REMARK    1  A    between atoms: C_3  and  O_4
REMARK    2  A    between atoms: C_5  and  C_17
REMARK    3  A    between atoms: C_15  and  C_20
REMARK    4  A    between atoms: C_15  and  C_23
REMARK    5  A    between atoms: C_16  and  C_17
REMARK                            x       y       z     vdW  Elec       q    Type
REMARK                         _______ _______ _______ _____ _____    ______ ____
ROOT
ATOM      1  C   UNL     1      33.328   1.173  29.089  0.00  0.00    -0.024 A 
ATOM      2  C   UNL     1      33.214   1.728  30.366  0.00  0.00    +0.000 A 
ATOM      3  C   UNL     1      31.961   1.871  30.962  0.00  0.00    +0.074 A 
ATOM      4  C   UNL     1      30.824   1.475  30.250  0.00  0.00    +0.008 A 
ATOM      5  C   UNL     1      30.937   0.923  28.968  0.00  0.00    -0.049 A 
ATOM      6  C   UNL     1      29.639   0.599  28.219  0.00  0.00    +0.058 C 
ATOM      7  C   UNL     1      29.897   0.301  26.723  0.00  0.00    +0.018 C 
ATOM      8  C   UNL     1      31.046  -0.732  26.609  0.00  0.00    +0.000 C 
ATOM      9  C   UNL     1      31.156  -1.427  25.209  0.00  0.00    -0.004 C 
ATOM     10  C   UNL     1      32.292  -2.508  25.228  0.00  0.00    +0.006 C 
ATOM     11  C   UNL     1      31.934  -3.760  26.092  0.00  0.00    -0.039 C 
ATOM     12  C   UNL     1      33.618  -1.862  25.729  0.00  0.00    -0.032 C 
ATOM     13  C   UNL     1      33.487  -1.147  27.103  0.00  0.00    +0.006 C 
ATOM     14  C   UNL     1      32.373  -0.062  27.067  0.00  0.00    +0.030 C 
ATOM     15  C   UNL     1      32.203   0.689  28.408  0.00  0.00    -0.048 A 
ENDROOT
BRANCH  10  16
ATOM     16  C   UNL     1      32.519  -3.060  23.832  0.00  0.00    +0.114 A 
ATOM     17  N   UNL     1      32.159  -4.254  23.437  0.00  0.00    -0.246 N 
ATOM     18  C   UNL     1      32.538  -4.357  22.140  0.00  0.00    +0.109 A 
ATOM     19  C   UNL     1      33.136  -3.158  21.787  0.00  0.00    +0.090 A 
ATOM     20  C   UNL     1      33.646  -2.904  20.517  0.00  0.00    +0.030 A 
ATOM     21  C   UNL     1      33.519  -3.951  19.592  0.00  0.00    -0.002 A 
ATOM     22  C   UNL     1      32.915  -5.172  19.941  0.00  0.00    +0.007 A 
ATOM     23  C   UNL     1      32.409  -5.404  21.229  0.00  0.00    +0.037 A 
ATOM     24  H   UNL     1      31.683  -4.977  23.993  0.00  0.00    +0.235 HD
ATOM     25  N   UNL     1      33.083  -2.412  22.897  0.00  0.00    -0.247 NA
ENDBRANCH  10  16
BRANCH   3  26
ATOM     26  O   UNL     1      31.871   2.407  32.250  0.00  0.00    -0.339 OA
ATOM     27  H   UNL     1      32.616   2.215  32.807  0.00  0.00    +0.246 HD
ENDBRANCH   3  26
BRANCH   9  28
ATOM     28  C   UNL     1      31.307  -0.424  24.019  0.00  0.00    +0.179 C 
BRANCH  28  29
ATOM     29  C   UNL     1      32.344   0.573  24.256  0.00  0.00    +0.089 C 
ATOM     30  N   UNL     1      33.167   1.364  24.447  0.00  0.00    -0.304 NA
ENDBRANCH  28  29
ENDBRANCH   9  28
TORSDOF 4
ENDMDL
MODEL 8
REMARK VINA RESULT:    -3.388      4.010      6.335
REMARK INTER + INTRA:          -3.181
REMARK INTER:                  -4.838
REMARK INTRA:                   1.657
REMARK UNBOUND:                 0.900
REMARK  Name = 303
REMARK  5 active torsions:
REMARK  status: ('A' for Active; 'I' for Inactive)
REMARK    1  A    between atoms: C_3  and  O_4
REMARK    2  A    between atoms: C_5  and  C_17
REMARK    3  A    between atoms: C_15  and  C_20
REMARK    4  A    between atoms: C_15  and  C_23
REMARK    5  A    between atoms: C_16  and  C_17
REMARK                            x       y       z     vdW  Elec       q    Type
REMARK                         _______ _______ _______ _____ _____    ______ ____
ROOT
ATOM      1  C   UNL     1      32.394   2.016  28.309  0.00  0.00    -0.024 A 
ATOM      2  C   UNL     1      32.625   2.554  29.577  0.00  0.00    +0.000 A 
ATOM      3  C   UNL     1      32.197   1.873  30.718  0.00  0.00    +0.074 A 
ATOM      4  C   UNL     1      31.515   0.662  30.567  0.00  0.00    +0.008 A 
ATOM      5  C   UNL     1      31.281   0.124  29.295  0.00  0.00    -0.049 A 
ATOM      6  C   UNL     1      30.446  -1.159  29.211  0.00  0.00    +0.058 C 
ATOM      7  C   UNL     1      30.000  -1.462  27.761  0.00  0.00    +0.018 C 
ATOM      8  C   UNL     1      31.234  -1.367  26.828  0.00  0.00    +0.000 C 
ATOM      9  C   UNL     1      31.033  -2.026  25.421  0.00  0.00    -0.004 C 
ATOM     10  C   UNL     1      32.362  -1.948  24.591  0.00  0.00    +0.006 C 
ATOM     11  C   UNL     1      33.485  -2.886  25.139  0.00  0.00    -0.039 C 
ATOM     12  C   UNL     1      32.860  -0.473  24.543  0.00  0.00    -0.032 C 
ATOM     13  C   UNL     1      33.022   0.180  25.945  0.00  0.00    +0.006 C 
ATOM     14  C   UNL     1      31.694   0.117  26.751  0.00  0.00    +0.030 C 
ATOM     15  C   UNL     1      31.794   0.759  28.153  0.00  0.00    -0.048 A 
ENDROOT
BRANCH  10  16
ATOM     16  C   UNL     1      32.126  -2.426  23.169  0.00  0.00    +0.114 A 
ATOM     17  N   UNL     1      30.951  -2.683  22.656  0.00  0.00    -0.246 N 
ATOM     18  C   UNL     1      31.169  -3.078  21.379  0.00  0.00    +0.109 A 
ATOM     19  C   UNL     1      32.536  -3.035  21.161  0.00  0.00    +0.090 A 
ATOM     20  C   UNL     1      33.127  -3.375  19.947  0.00  0.00    +0.030 A 
ATOM     21  C   UNL     1      32.243  -3.772  18.933  0.00  0.00    -0.002 A 
ATOM     22  C   UNL     1      30.854  -3.821  19.145  0.00  0.00    +0.007 A 
ATOM     23  C   UNL     1      30.283  -3.474  20.379  0.00  0.00    +0.037 A 
ATOM     24  H   UNL     1      30.036  -2.603  23.123  0.00  0.00    +0.235 HD
ATOM     25  N   UNL     1      33.054  -2.621  22.324  0.00  0.00    -0.247 NA
ENDBRANCH  10  16
BRANCH   3  26
ATOM     26  O   UNL     1      32.458   2.417  31.979  0.00  0.00    -0.339 OA
ATOM     27  H   UNL     1      32.628   3.352  31.975  0.00  0.00    +0.246 HD
ENDBRANCH   3  26
BRANCH   9  28
ATOM     28  C   UNL     1      29.804  -1.465  24.633  0.00  0.00    +0.179 C 
BRANCH  28  29
ATOM     29  C   UNL     1      28.562  -1.567  25.390  0.00  0.00    +0.089 C 
ATOM     30  N   UNL     1      27.574  -1.646  25.989  0.00  0.00    -0.304 NA
ENDBRANCH  28  29
ENDBRANCH   9  28
TORSDOF 4
ENDMDL
MODEL 9
REMARK VINA RESULT:    -3.209      5.584      8.790
REMARK INTER + INTRA:          -2.966
REMARK INTER:                  -3.452
REMARK INTRA:                   0.486
REMARK UNBOUND:                 0.900
REMARK  Name = 303
REMARK  5 active torsions:
REMARK  status: ('A' for Active; 'I' for Inactive)
REMARK    1  A    between atoms: C_3  and  O_4
REMARK    2  A    between atoms: C_5  and  C_17
REMARK    3  A    between atoms: C_15  and  C_20
REMARK    4  A    between atoms: C_15  and  C_23
REMARK    5  A    between atoms: C_16  and  C_17
REMARK                            x       y       z     vdW  Elec       q    Type
REMARK                         _______ _______ _______ _____ _____    ______ ____
ROOT
ATOM      1  C   UNL     1      32.068  -3.113  17.544  0.00  0.00    -0.024 A 
ATOM      2  C   UNL     1      32.523  -3.446  16.265  0.00  0.00    +0.000 A 
ATOM      3  C   UNL     1      33.886  -3.400  15.969  0.00  0.00    +0.074 A 
ATOM      4  C   UNL     1      34.781  -2.992  16.963  0.00  0.00    +0.008 A 
ATOM      5  C   UNL     1      34.325  -2.654  18.244  0.00  0.00    -0.049 A 
ATOM      6  C   UNL     1      35.358  -2.130  19.248  0.00  0.00    +0.058 C 
ATOM      7  C   UNL     1      34.684  -1.504  20.492  0.00  0.00    +0.018 C 
ATOM      8  C   UNL     1      33.620  -2.491  21.035  0.00  0.00    +0.000 C 
ATOM      9  C   UNL     1      33.141  -2.189  22.496  0.00  0.00    -0.004 C 
ATOM     10  C   UNL     1      32.132  -3.289  22.975  0.00  0.00    +0.006 C 
ATOM     11  C   UNL     1      32.808  -4.676  23.224  0.00  0.00    -0.039 C 
ATOM     12  C   UNL     1      30.978  -3.425  21.937  0.00  0.00    -0.032 C 
ATOM     13  C   UNL     1      31.469  -3.692  20.486  0.00  0.00    +0.006 C 
ATOM     14  C   UNL     1      32.451  -2.583  20.013  0.00  0.00    +0.030 C 
ATOM     15  C   UNL     1      32.966  -2.793  18.570  0.00  0.00    -0.048 A 
ENDROOT
BRANCH  10  16
ATOM     16  C   UNL     1      31.533  -2.910  24.317  0.00  0.00    +0.114 A 
ATOM     17  N   UNL     1      32.069  -3.192  25.477  0.00  0.00    -0.246 N 
ATOM     18  C   UNL     1      31.234  -2.684  26.416  0.00  0.00    +0.109 A 
ATOM     19  C   UNL     1      30.179  -2.082  25.750  0.00  0.00    +0.090 A 
ATOM     20  C   UNL     1      29.126  -1.449  26.404  0.00  0.00    +0.030 A 
ATOM     21  C   UNL     1      29.192  -1.453  27.805  0.00  0.00    -0.002 A 
ATOM     22  C   UNL     1      30.257  -2.065  28.490  0.00  0.00    +0.007 A 
ATOM     23  C   UNL     1      31.307  -2.697  27.808  0.00  0.00    +0.037 A 
ATOM     24  H   UNL     1      32.948  -3.697  25.650  0.00  0.00    +0.235 HD
ATOM     25  N   UNL     1      30.445  -2.269  24.452  0.00  0.00    -0.247 NA
ENDBRANCH  10  16
BRANCH   3  26
ATOM     26  O   UNL     1      34.322  -3.759  14.691  0.00  0.00    -0.339 OA
ATOM     27  H   UNL     1      35.102  -3.301  14.399  0.00  0.00    +0.246 HD
ENDBRANCH   3  26
BRANCH   9  28
ATOM     28  C   UNL     1      32.580  -0.741  22.687  0.00  0.00    +0.179 C 
BRANCH  28  29
ATOM     29  C   UNL     1      32.760  -0.247  24.047  0.00  0.00    +0.089 C 
ATOM     30  N   UNL     1      32.902   0.144  25.127  0.00  0.00    -0.304 NA
ENDBRANCH  28  29
ENDBRANCH   9  28
TORSDOF 4
ENDMDL
MODEL 10
REMARK VINA RESULT:    -2.643      3.326      8.307
REMARK INTER + INTRA:          -2.284
REMARK INTER:                  -3.941
REMARK INTRA:                   1.657
REMARK UNBOUND:                 0.900
REMARK  Name = 303
REMARK  5 active torsions:
REMARK  status: ('A' for Active; 'I' for Inactive)
REMARK    1  A    between atoms: C_3  and  O_4
REMARK    2  A    between atoms: C_5  and  C_17
REMARK    3  A    between atoms: C_15  and  C_20
REMARK    4  A    between atoms: C_15  and  C_23
REMARK    5  A    between atoms: C_16  and  C_17
REMARK                            x       y       z     vdW  Elec       q    Type
REMARK                         _______ _______ _______ _____ _____    ______ ____
ROOT
ATOM      1  C   UNL     1      36.264  -2.685  26.220  0.00  0.00    -0.024 A 
ATOM      2  C   UNL     1      37.648  -2.854  26.309  0.00  0.00    +0.000 A 
ATOM      3  C   UNL     1      38.452  -1.821  26.792  0.00  0.00    +0.074 A 
ATOM      4  C   UNL     1      37.854  -0.611  27.158  0.00  0.00    +0.008 A 
ATOM      5  C   UNL     1      36.467  -0.441  27.066  0.00  0.00    -0.049 A 
ATOM      6  C   UNL     1      35.900   0.944  27.399  0.00  0.00    +0.058 C 
ATOM      7  C   UNL     1      34.424   1.083  26.956  0.00  0.00    +0.018 C 
ATOM      8  C   UNL     1      33.628  -0.142  27.473  0.00  0.00    +0.000 C 
ATOM      9  C   UNL     1      32.072   0.042  27.455  0.00  0.00    -0.004 C 
ATOM     10  C   UNL     1      31.369  -1.217  28.072  0.00  0.00    +0.006 C 
ATOM     11  C   UNL     1      31.580  -1.343  29.615  0.00  0.00    -0.039 C 
ATOM     12  C   UNL     1      31.872  -2.501  27.347  0.00  0.00    -0.032 C 
ATOM     13  C   UNL     1      33.419  -2.654  27.343  0.00  0.00    +0.006 C 
ATOM     14  C   UNL     1      34.105  -1.410  26.710  0.00  0.00    +0.030 C 
ATOM     15  C   UNL     1      35.647  -1.511  26.672  0.00  0.00    -0.048 A 
ENDROOT
BRANCH  10  16
ATOM     16  C   UNL     1      29.864  -1.121  27.898  0.00  0.00    +0.114 A 
ATOM     17  N   UNL     1      29.022  -2.086  28.162  0.00  0.00    -0.246 N 
ATOM     18  C   UNL     1      27.788  -1.604  27.878  0.00  0.00    +0.109 A 
ATOM     19  C   UNL     1      27.944  -0.301  27.436  0.00  0.00    +0.090 A 
ATOM     20  C   UNL     1      26.878   0.510  27.057  0.00  0.00    +0.030 A 
ATOM     21  C   UNL     1      25.608  -0.078  27.147  0.00  0.00    -0.002 A 
ATOM     22  C   UNL     1      25.439  -1.402  27.590  0.00  0.00    +0.007 A 
ATOM     23  C   UNL     1      26.531  -2.199  27.968  0.00  0.00    +0.037 A 
ATOM     24  H   UNL     1      29.244  -3.027  28.516  0.00  0.00    +0.235 HD
ATOM     25  N   UNL     1      29.265  -0.082  27.480  0.00  0.00    -0.247 NA
ENDBRANCH  10  16
BRANCH   3  26
ATOM     26  O   UNL     1      39.833  -2.018  26.895  0.00  0.00    -0.339 OA
ATOM     27  H   UNL     1      40.357  -1.282  26.603  0.00  0.00    +0.246 HD
ENDBRANCH   3  26
BRANCH   9  28
ATOM     28  C   UNL     1      31.499   0.415  26.048  0.00  0.00    +0.179 C 
BRANCH  28  29
ATOM     29  C   UNL     1      31.867  -0.552  25.020  0.00  0.00    +0.089 C 
ATOM     30  N   UNL     1      32.158  -1.321  24.205  0.00  0.00    -0.304 NA
ENDBRANCH  28  29
ENDBRANCH   9  28
TORSDOF 4
ENDMDL
MODEL 11
REMARK VINA RESULT:    -2.274      5.793      7.955
REMARK INTER + INTRA:          -1.839
REMARK INTER:                  -3.414
REMARK INTRA:                   1.575
REMARK UNBOUND:                 0.900
REMARK  Name = 303
REMARK  5 active torsions:
REMARK  status: ('A' for Active; 'I' for Inactive)
REMARK    1  A    between atoms: C_3  and  O_4
REMARK    2  A    between atoms: C_5  and  C_17
REMARK    3  A    between atoms: C_15  and  C_20
REMARK    4  A    between atoms: C_15  and  C_23
REMARK    5  A    between atoms: C_16  and  C_17
REMARK                            x       y       z     vdW  Elec       q    Type
REMARK                         _______ _______ _______ _____ _____    ______ ____
ROOT
ATOM      1  C   UNL     1      31.108  -0.792  24.655  0.00  0.00    -0.024 A 
ATOM      2  C   UNL     1      30.890  -0.462  25.996  0.00  0.00    +0.000 A 
ATOM      3  C   UNL     1      31.260  -1.349  27.007  0.00  0.00    +0.074 A 
ATOM      4  C   UNL     1      31.826  -2.579  26.656  0.00  0.00    +0.008 A 
ATOM      5  C   UNL     1      32.041  -2.911  25.312  0.00  0.00    -0.049 A 
ATOM      6  C   UNL     1      32.581  -4.313  25.007  0.00  0.00    +0.058 C 
ATOM      7  C   UNL     1      32.470  -4.657  23.502  0.00  0.00    +0.018 C 
ATOM      8  C   UNL     1      33.060  -3.486  22.676  0.00  0.00    +0.000 C 
ATOM      9  C   UNL     1      33.384  -3.843  21.186  0.00  0.00    -0.004 C 
ATOM     10  C   UNL     1      34.049  -2.619  20.466  0.00  0.00    +0.006 C 
ATOM     11  C   UNL     1      35.500  -2.327  20.966  0.00  0.00    -0.039 C 
ATOM     12  C   UNL     1      33.149  -1.359  20.643  0.00  0.00    -0.032 C 
ATOM     13  C   UNL     1      32.807  -1.036  22.124  0.00  0.00    +0.006 C 
ATOM     14  C   UNL     1      32.129  -2.249  22.822  0.00  0.00    +0.030 C 
ATOM     15  C   UNL     1      31.759  -1.981  24.299  0.00  0.00    -0.048 A 
ENDROOT
BRANCH  10  16
ATOM     16  C   UNL     1      34.205  -2.898  18.982  0.00  0.00    +0.114 A 
ATOM     17  N   UNL     1      35.351  -3.003  18.362  0.00  0.00    -0.246 N 
ATOM     18  C   UNL     1      35.061  -3.253  17.063  0.00  0.00    +0.109 A 
ATOM     19  C   UNL     1      33.681  -3.296  16.948  0.00  0.00    +0.090 A 
ATOM     20  C   UNL     1      33.022  -3.536  15.745  0.00  0.00    +0.030 A 
ATOM     21  C   UNL     1      33.849  -3.738  14.630  0.00  0.00    -0.002 A 
ATOM     22  C   UNL     1      35.251  -3.694  14.736  0.00  0.00    +0.007 A 
ATOM     23  C   UNL     1      35.892  -3.449  15.960  0.00  0.00    +0.037 A 
ATOM     24  H   UNL     1      36.292  -2.915  18.771  0.00  0.00    +0.235 HD
ATOM     25  N   UNL     1      33.229  -3.064  18.187  0.00  0.00    -0.247 NA
ENDBRANCH  10  16
BRANCH   3  26
ATOM     26  O   UNL     1      31.055  -0.990  28.342  0.00  0.00    -0.339 OA
ATOM     27  H   UNL     1      30.573  -0.180  28.461  0.00  0.00    +0.246 HD
ENDBRANCH   3  26
BRANCH   9  28
ATOM     28  C   UNL     1      32.159  -4.407  20.393  0.00  0.00    +0.179 C 
BRANCH  28  29
ATOM     29  C   UNL     1      30.941  -3.640  20.626  0.00  0.00    +0.089 C 
ATOM     30  N   UNL     1      29.974  -3.032  20.813  0.00  0.00    -0.304 NA
ENDBRANCH  28  29
ENDBRANCH   9  28
TORSDOF 4
ENDMDL
MODEL 12
REMARK VINA RESULT:    -0.858      3.709      8.515
REMARK INTER + INTRA:          -0.134
REMARK INTER:                  -1.347
REMARK INTRA:                   1.213
REMARK UNBOUND:                 0.900
REMARK  Name = 303
REMARK  5 active torsions:
REMARK  status: ('A' for Active; 'I' for Inactive)
REMARK    1  A    between atoms: C_3  and  O_4
REMARK    2  A    between atoms: C_5  and  C_17
REMARK    3  A    between atoms: C_15  and  C_20
REMARK    4  A    between atoms: C_15  and  C_23
REMARK    5  A    between atoms: C_16  and  C_17
REMARK                            x       y       z     vdW  Elec       q    Type
REMARK                         _______ _______ _______ _____ _____    ______ ____
ROOT
ATOM      1  C   UNL     1      35.396  -0.795  28.375  0.00  0.00    -0.024 A 
ATOM      2  C   UNL     1      36.782  -0.729  28.210  0.00  0.00    +0.000 A 
ATOM      3  C   UNL     1      37.401  -1.436  27.178  0.00  0.00    +0.074 A 
ATOM      4  C   UNL     1      36.616  -2.227  26.334  0.00  0.00    +0.008 A 
ATOM      5  C   UNL     1      35.227  -2.296  26.502  0.00  0.00    -0.049 A 
ATOM      6  C   UNL     1      34.451  -3.257  25.594  0.00  0.00    +0.058 C 
ATOM      7  C   UNL     1      33.000  -3.471  26.089  0.00  0.00    +0.018 C 
ATOM      8  C   UNL     1      32.354  -2.088  26.359  0.00  0.00    +0.000 C 
ATOM      9  C   UNL     1      30.793  -2.115  26.478  0.00  0.00    -0.004 C 
ATOM     10  C   UNL     1      30.238  -0.661  26.668  0.00  0.00    +0.006 C 
ATOM     11  C   UNL     1      30.368   0.219  25.383  0.00  0.00    -0.039 C 
ATOM     12  C   UNL     1      30.961   0.020  27.869  0.00  0.00    -0.032 C 
ATOM     13  C   UNL     1      32.511   0.010  27.755  0.00  0.00    +0.006 C 
ATOM     14  C   UNL     1      33.052  -1.439  27.589  0.00  0.00    +0.030 C 
ATOM     15  C   UNL     1      34.593  -1.510  27.478  0.00  0.00    -0.048 A 
ENDROOT
BRANCH  10  16
ATOM     16  C   UNL     1      28.748  -0.697  26.958  0.00  0.00    +0.114 A 
ATOM     17  N   UNL     1      28.211  -1.216  28.031  0.00  0.00    -0.246 N 
ATOM     18  C   UNL     1      26.873  -1.048  27.908  0.00  0.00    +0.109 A 
ATOM     19  C   UNL     1      26.646  -0.396  26.708  0.00  0.00    +0.090 A 
ATOM     20  C   UNL     1      25.376  -0.053  26.253  0.00  0.00    +0.030 A 
ATOM     21  C   UNL     1      24.313  -0.412  27.095  0.00  0.00    -0.002 A 
ATOM     22  C   UNL     1      24.533  -1.077  28.315  0.00  0.00    +0.007 A 
ATOM     23  C   UNL     1      25.823  -1.412  28.751  0.00  0.00    +0.037 A 
ATOM     24  H   UNL     1      28.701  -1.666  28.817  0.00  0.00    +0.235 HD
ATOM     25  N   UNL     1      27.864  -0.217  26.182  0.00  0.00    -0.247 NA
ENDBRANCH  10  16
BRANCH   3  26
ATOM     26  O   UNL     1      38.786  -1.338  27.016  0.00  0.00    -0.339 OA
ATOM     27  H   UNL     1      39.257  -1.090  27.803  0.00  0.00    +0.246 HD
ENDBRANCH   3  26
BRANCH   9  28
ATOM     28  C   UNL     1      30.262  -3.103  27.568  0.00  0.00    +0.179 C 
BRANCH  28  29
ATOM     29  C   UNL     1      28.971  -3.683  27.216  0.00  0.00    +0.089 C 
ATOM     30  N   UNL     1      27.946  -4.142  26.937  0.00  0.00    -0.304 NA
ENDBRANCH  28  29
ENDBRANCH   9  28
TORSDOF 4
ENDMDL
MODEL 13
REMARK VINA RESULT:    -0.267      4.950      7.745
REMARK INTER + INTRA:           0.578
REMARK INTER:                  -2.512
REMARK INTRA:                   3.090
REMARK UNBOUND:                 0.900
REMARK  Name = 303
REMARK  5 active torsions:
REMARK  status: ('A' for Active; 'I' for Inactive)
REMARK    1  A    between atoms: C_3  and  O_4
REMARK    2  A    between atoms: C_5  and  C_17
REMARK    3  A    between atoms: C_15  and  C_20
REMARK    4  A    between atoms: C_15  and  C_23
REMARK    5  A    between atoms: C_16  and  C_17
REMARK                            x       y       z     vdW  Elec       q    Type
REMARK                         _______ _______ _______ _____ _____    ______ ____
ROOT
ATOM      1  C   UNL     1      34.619  -2.350  19.277  0.00  0.00    -0.024 A 
ATOM      2  C   UNL     1      34.839  -2.350  17.897  0.00  0.00    +0.000 A 
ATOM      3  C   UNL     1      33.884  -2.887  17.033  0.00  0.00    +0.074 A 
ATOM      4  C   UNL     1      32.722  -3.446  17.573  0.00  0.00    +0.008 A 
ATOM      5  C   UNL     1      32.503  -3.450  18.956  0.00  0.00    -0.049 A 
ATOM      6  C   UNL     1      31.248  -4.163  19.473  0.00  0.00    +0.058 C 
ATOM      7  C   UNL     1      31.293  -4.368  21.006  0.00  0.00    +0.018 C 
ATOM      8  C   UNL     1      31.659  -3.021  21.680  0.00  0.00    +0.000 C 
ATOM      9  C   UNL     1      31.357  -2.963  23.216  0.00  0.00    -0.004 C 
ATOM     10  C   UNL     1      31.686  -1.537  23.780  0.00  0.00    +0.006 C 
ATOM     11  C   UNL     1      30.686  -0.439  23.294  0.00  0.00    -0.039 C 
ATOM     12  C   UNL     1      33.146  -1.150  23.398  0.00  0.00    -0.032 C 
ATOM     13  C   UNL     1      33.442  -1.245  21.875  0.00  0.00    +0.006 C 
ATOM     14  C   UNL     1      33.133  -2.668  21.331  0.00  0.00    +0.030 C 
ATOM     15  C   UNL     1      33.417  -2.824  19.819  0.00  0.00    -0.048 A 
ENDROOT
BRANCH  10  16
ATOM     16  C   UNL     1      31.562  -1.525  25.293  0.00  0.00    +0.114 A 
ATOM     17  N   UNL     1      30.705  -2.239  25.974  0.00  0.00    -0.246 N 
ATOM     18  C   UNL     1      30.914  -1.945  27.280  0.00  0.00    +0.109 A 
ATOM     19  C   UNL     1      31.946  -1.022  27.335  0.00  0.00    +0.090 A 
ATOM     20  C   UNL     1      32.434  -0.493  28.527  0.00  0.00    +0.030 A 
ATOM     21  C   UNL     1      31.812  -0.956  29.696  0.00  0.00    -0.002 A 
ATOM     22  C   UNL     1      30.762  -1.891  29.650  0.00  0.00    +0.007 A 
ATOM     23  C   UNL     1      30.287  -2.409  28.435  0.00  0.00    +0.037 A 
ATOM     24  H   UNL     1      30.006  -2.897  25.601  0.00  0.00    +0.235 HD
ATOM     25  N   UNL     1      32.288  -0.816  26.057  0.00  0.00    -0.247 NA
ENDBRANCH  10  16
BRANCH   3  26
ATOM     26  O   UNL     1      34.113  -2.856  15.655  0.00  0.00    -0.339 OA
ATOM     27  H   UNL     1      33.478  -2.348  15.163  0.00  0.00    +0.246 HD
ENDBRANCH   3  26
BRANCH   9  28
ATOM     28  C   UNL     1      32.046  -4.102  24.037  0.00  0.00    +0.179 C 
BRANCH  28  29
ATOM     29  C   UNL     1      33.154  -3.614  24.849  0.00  0.00    +0.089 C 
ATOM     30  N   UNL     1      34.034  -3.224  25.493  0.00  0.00    -0.304 NA
ENDBRANCH  28  29
ENDBRANCH   9  28
TORSDOF 4
ENDMDL
MODEL 14
REMARK VINA RESULT:     0.217      4.703      7.275
REMARK INTER + INTRA:           1.162
REMARK INTER:                   0.745
REMARK INTRA:                   0.416
REMARK UNBOUND:                 0.900
REMARK  Name = 303
REMARK  5 active torsions:
REMARK  status: ('A' for Active; 'I' for Inactive)
REMARK    1  A    between atoms: C_3  and  O_4
REMARK    2  A    between atoms: C_5  and  C_17
REMARK    3  A    between atoms: C_15  and  C_20
REMARK    4  A    between atoms: C_15  and  C_23
REMARK    5  A    between atoms: C_16  and  C_17
REMARK                            x       y       z     vdW  Elec       q    Type
REMARK                         _______ _______ _______ _____ _____    ______ ____
ROOT
ATOM      1  C   UNL     1      30.277  -1.287  26.805  0.00  0.00    -0.024 A 
ATOM      2  C   UNL     1      30.229  -0.895  28.146  0.00  0.00    +0.000 A 
ATOM      3  C   UNL     1      31.194  -1.348  29.046  0.00  0.00    +0.074 A 
ATOM      4  C   UNL     1      32.189  -2.219  28.590  0.00  0.00    +0.008 A 
ATOM      5  C   UNL     1      32.235  -2.615  27.248  0.00  0.00    -0.049 A 
ATOM      6  C   UNL     1      33.301  -3.642  26.849  0.00  0.00    +0.058 C 
ATOM      7  C   UNL     1      33.042  -4.223  25.438  0.00  0.00    +0.018 C 
ATOM      8  C   UNL     1      32.795  -3.052  24.453  0.00  0.00    +0.000 C 
ATOM      9  C   UNL     1      32.913  -3.443  22.941  0.00  0.00    -0.004 C 
ATOM     10  C   UNL     1      32.727  -2.175  22.036  0.00  0.00    +0.006 C 
ATOM     11  C   UNL     1      33.927  -1.178  22.123  0.00  0.00    -0.039 C 
ATOM     12  C   UNL     1      31.396  -1.459  22.412  0.00  0.00    -0.032 C 
ATOM     13  C   UNL     1      31.277  -1.107  23.921  0.00  0.00    +0.006 C 
ATOM     14  C   UNL     1      31.441  -2.374  24.807  0.00  0.00    +0.030 C 
ATOM     15  C   UNL     1      31.323  -2.084  26.321  0.00  0.00    -0.048 A 
ENDROOT
BRANCH  10  16
ATOM     16  C   UNL     1      32.667  -2.574  20.573  0.00  0.00    +0.114 A 
ATOM     17  N   UNL     1      33.691  -2.573  19.759  0.00  0.00    -0.246 N 
ATOM     18  C   UNL     1      33.224  -2.989  18.557  0.00  0.00    +0.109 A 
ATOM     19  C   UNL     1      31.870  -3.241  18.704  0.00  0.00    +0.090 A 
ATOM     20  C   UNL     1      31.060  -3.691  17.666  0.00  0.00    +0.030 A 
ATOM     21  C   UNL     1      31.703  -3.880  16.433  0.00  0.00    -0.002 A 
ATOM     22  C   UNL     1      33.076  -3.625  16.273  0.00  0.00    +0.007 A 
ATOM     23  C   UNL     1      33.872  -3.171  17.336  0.00  0.00    +0.037 A 
ATOM     24  H   UNL     1      34.661  -2.311  19.979  0.00  0.00    +0.235 HD
ATOM     25  N   UNL     1      31.608  -2.956  19.986  0.00  0.00    -0.247 NA
ENDBRANCH  10  16
BRANCH   3  26
ATOM     26  O   UNL     1      31.142  -0.925  30.377  0.00  0.00    -0.339 OA
ATOM     27  H   UNL     1      31.207  -1.627  31.014  0.00  0.00    +0.246 HD
ENDBRANCH   3  26
BRANCH   9  28
ATOM     28  C   UNL     1      31.971  -4.619  22.519  0.00  0.00    +0.179 C 
BRANCH  28  29
ATOM     29  C   UNL     1      32.559  -5.463  21.485  0.00  0.00    +0.089 C 
ATOM     30  N   UNL     1      33.026  -6.134  20.666  0.00  0.00    -0.304 NA
ENDBRANCH  28  29
ENDBRANCH   9  28
TORSDOF 4
ENDMDL
MODEL 15
REMARK VINA RESULT:     1.203      5.691      8.363
REMARK INTER + INTRA:           2.350
REMARK INTER:                   0.784
REMARK INTRA:                   1.565
REMARK UNBOUND:                 0.900
REMARK  Name = 303
REMARK  5 active torsions:
REMARK  status: ('A' for Active; 'I' for Inactive)
REMARK    1  A    between atoms: C_3  and  O_4
REMARK    2  A    between atoms: C_5  and  C_17
REMARK    3  A    between atoms: C_15  and  C_20
REMARK    4  A    between atoms: C_15  and  C_23
REMARK    5  A    between atoms: C_16  and  C_17
REMARK                            x       y       z     vdW  Elec       q    Type
REMARK                         _______ _______ _______ _____ _____    ______ ____
ROOT
ATOM      1  C   UNL     1      33.389  -3.921  26.035  0.00  0.00    -0.024 A 
ATOM      2  C   UNL     1      33.050  -3.844  27.389  0.00  0.00    +0.000 A 
ATOM      3  C   UNL     1      32.493  -2.676  27.908  0.00  0.00    +0.074 A 
ATOM      4  C   UNL     1      32.307  -1.579  27.061  0.00  0.00    +0.008 A 
ATOM      5  C   UNL     1      32.650  -1.655  25.705  0.00  0.00    -0.049 A 
ATOM      6  C   UNL     1      32.500  -0.382  24.864  0.00  0.00    +0.058 C 
ATOM      7  C   UNL     1      33.202  -0.512  23.492  0.00  0.00    +0.018 C 
ATOM      8  C   UNL     1      32.764  -1.843  22.830  0.00  0.00    +0.000 C 
ATOM      9  C   UNL     1      33.064  -1.933  21.295  0.00  0.00    -0.004 C 
ATOM     10  C   UNL     1      32.509  -3.278  20.711  0.00  0.00    +0.006 C 
ATOM     11  C   UNL     1      30.948  -3.325  20.655  0.00  0.00    -0.039 C 
ATOM     12  C   UNL     1      33.060  -4.474  21.544  0.00  0.00    -0.032 C 
ATOM     13  C   UNL     1      32.784  -4.356  23.069  0.00  0.00    +0.006 C 
ATOM     14  C   UNL     1      33.358  -3.029  23.642  0.00  0.00    +0.030 C 
ATOM     15  C   UNL     1      33.120  -2.861  25.160  0.00  0.00    -0.048 A 
ENDROOT
BRANCH  10  16
ATOM     16  C   UNL     1      32.948  -3.449  19.268  0.00  0.00    +0.114 A 
ATOM     17  N   UNL     1      34.147  -3.183  18.819  0.00  0.00    -0.246 N 
ATOM     18  C   UNL     1      34.131  -3.467  17.495  0.00  0.00    +0.109 A 
ATOM     19  C   UNL     1      32.860  -3.922  17.184  0.00  0.00    +0.090 A 
ATOM     20  C   UNL     1      32.480  -4.312  15.903  0.00  0.00    +0.030 A 
ATOM     21  C   UNL     1      33.477  -4.218  14.920  0.00  0.00    -0.002 A 
ATOM     22  C   UNL     1      34.769  -3.755  15.225  0.00  0.00    +0.007 A 
ATOM     23  C   UNL     1      35.128  -3.367  16.525  0.00  0.00    +0.037 A 
ATOM     24  H   UNL     1      34.949  -2.828  19.357  0.00  0.00    +0.235 HD
ATOM     25  N   UNL     1      32.191  -3.877  18.343  0.00  0.00    -0.247 NA
ENDBRANCH  10  16
BRANCH   3  26
ATOM     26  O   UNL     1      32.139  -2.627  29.260  0.00  0.00    -0.339 OA
ATOM     27  H   UNL     1      32.754  -3.060  29.842  0.00  0.00    +0.246 HD
ENDBRANCH   3  26
BRANCH   9  28
ATOM     28  C   UNL     1      34.569  -1.702  20.934  0.00  0.00    +0.179 C 
BRANCH  28  29
ATOM     29  C   UNL     1      34.738  -0.868  19.749  0.00  0.00    +0.089 C 
ATOM     30  N   UNL     1      34.873  -0.206  18.810  0.00  0.00    -0.304 NA
ENDBRANCH  28  29
ENDBRANCH   9  28
TORSDOF 4
ENDMDL
MODEL 16
REMARK VINA RESULT:     3.054      4.190      7.509
REMARK INTER + INTRA:           4.579
REMARK INTER:                   3.795
REMARK INTRA:                   0.784
REMARK UNBOUND:                 0.900
REMARK  Name = 303
REMARK  5 active torsions:
REMARK  status: ('A' for Active; 'I' for Inactive)
REMARK    1  A    between atoms: C_3  and  O_4
REMARK    2  A    between atoms: C_5  and  C_17
REMARK    3  A    between atoms: C_15  and  C_20
REMARK    4  A    between atoms: C_15  and  C_23
REMARK    5  A    between atoms: C_16  and  C_17
REMARK                            x       y       z     vdW  Elec       q    Type
REMARK                         _______ _______ _______ _____ _____    ______ ____
ROOT
ATOM      1  C   UNL     1      35.429  -1.076  27.464  0.00  0.00    -0.024 A 
ATOM      2  C   UNL     1      35.941  -1.021  28.763  0.00  0.00    +0.000 A 
ATOM      3  C   UNL     1      35.125  -1.323  29.853  0.00  0.00    +0.074 A 
ATOM      4  C   UNL     1      33.786  -1.654  29.626  0.00  0.00    +0.008 A 
ATOM      5  C   UNL     1      33.272  -1.706  28.324  0.00  0.00    -0.049 A 
ATOM      6  C   UNL     1      31.773  -1.988  28.165  0.00  0.00    +0.058 C 
ATOM      7  C   UNL     1      31.284  -1.705  26.725  0.00  0.00    +0.018 C 
ATOM      8  C   UNL     1      32.237  -2.407  25.725  0.00  0.00    +0.000 C 
ATOM      9  C   UNL     1      31.663  -2.551  24.274  0.00  0.00    -0.004 C 
ATOM     10  C   UNL     1      32.668  -3.344  23.369  0.00  0.00    +0.006 C 
ATOM     11  C   UNL     1      32.766  -4.859  23.742  0.00  0.00    -0.039 C 
ATOM     12  C   UNL     1      34.073  -2.675  23.440  0.00  0.00    -0.032 C 
ATOM     13  C   UNL     1      34.616  -2.508  24.887  0.00  0.00    +0.006 C 
ATOM     14  C   UNL     1      33.622  -1.701  25.770  0.00  0.00    +0.030 C 
ATOM     15  C   UNL     1      34.115  -1.497  27.221  0.00  0.00    -0.048 A 
ENDROOT
BRANCH  10  16
ATOM     16  C   UNL     1      32.199  -3.336  21.925  0.00  0.00    +0.114 A 
ATOM     17  N   UNL     1      32.948  -3.014  20.903  0.00  0.00    -0.246 N 
ATOM     18  C   UNL     1      32.165  -3.133  19.804  0.00  0.00    +0.109 A 
ATOM     19  C   UNL     1      30.914  -3.547  20.230  0.00  0.00    +0.090 A 
ATOM     20  C   UNL     1      29.849  -3.776  19.363  0.00  0.00    +0.030 A 
ATOM     21  C   UNL     1      30.117  -3.560  18.003  0.00  0.00    -0.002 A 
ATOM     22  C   UNL     1      31.383  -3.137  17.561  0.00  0.00    +0.007 A 
ATOM     23  C   UNL     1      32.441  -2.913  18.455  0.00  0.00    +0.037 A 
ATOM     24  H   UNL     1      33.937  -2.728  20.920  0.00  0.00    +0.235 HD
ATOM     25  N   UNL     1      31.023  -3.647  21.560  0.00  0.00    -0.247 NA
ENDBRANCH  10  16
BRANCH   3  26
ATOM     26  O   UNL     1      35.663  -1.284  31.143  0.00  0.00    -0.339 OA
ATOM     27  H   UNL     1      35.456  -0.495  31.631  0.00  0.00    +0.246 HD
ENDBRANCH   3  26
BRANCH   9  28
ATOM     28  C   UNL     1      31.228  -1.192  23.633  0.00  0.00    +0.179 C 
BRANCH  28  29
ATOM     29  C   UNL     1      30.247  -0.480  24.444  0.00  0.00    +0.089 C 
ATOM     30  N   UNL     1      29.470   0.085  25.090  0.00  0.00    -0.304 NA
ENDBRANCH  28  29
ENDBRANCH   9  28
TORSDOF 4
ENDMDL
MODEL 17
REMARK VINA RESULT:     7.918      2.007      2.720
REMARK INTER + INTRA:          10.438
REMARK INTER:                   9.502
REMARK INTRA:                   0.936
REMARK UNBOUND:                 0.900
REMARK  Name = 303
REMARK  5 active torsions:
REMARK  status: ('A' for Active; 'I' for Inactive)
REMARK    1  A    between atoms: C_3  and  O_4
REMARK    2  A    between atoms: C_5  and  C_17
REMARK    3  A    between atoms: C_15  and  C_20
REMARK    4  A    between atoms: C_15  and  C_23
REMARK    5  A    between atoms: C_16  and  C_17
REMARK                            x       y       z     vdW  Elec       q    Type
REMARK                         _______ _______ _______ _____ _____    ______ ____
ROOT
ATOM      1  C   UNL     1      28.798   0.505  27.570  0.00  0.00    -0.024 A 
ATOM      2  C   UNL     1      27.576   1.165  27.725  0.00  0.00    +0.000 A 
ATOM      3  C   UNL     1      27.385   2.051  28.785  0.00  0.00    +0.074 A 
ATOM      4  C   UNL     1      28.425   2.246  29.700  0.00  0.00    +0.008 A 
ATOM      5  C   UNL     1      29.648   1.582  29.547  0.00  0.00    -0.049 A 
ATOM      6  C   UNL     1      30.703   1.779  30.642  0.00  0.00    +0.058 C 
ATOM      7  C   UNL     1      31.860   0.759  30.518  0.00  0.00    +0.018 C 
ATOM      8  C   UNL     1      32.366   0.752  29.053  0.00  0.00    +0.000 C 
ATOM      9  C   UNL     1      33.768   0.083  28.855  0.00  0.00    -0.004 C 
ATOM     10  C   UNL     1      34.220   0.203  27.359  0.00  0.00    +0.006 C 
ATOM     11  C   UNL     1      34.588   1.664  26.943  0.00  0.00    -0.039 C 
ATOM     12  C   UNL     1      33.104  -0.362  26.431  0.00  0.00    -0.032 C 
ATOM     13  C   UNL     1      31.710   0.287  26.660  0.00  0.00    +0.006 C 
ATOM     14  C   UNL     1      31.261   0.143  28.142  0.00  0.00    +0.030 C 
ATOM     15  C   UNL     1      29.875   0.765  28.428  0.00  0.00    -0.048 A 
ENDROOT
BRANCH  10  16
ATOM     16  C   UNL     1      35.492  -0.592  27.125  0.00  0.00    +0.114 A 
ATOM     17  N   UNL     1      36.646  -0.330  27.683  0.00  0.00    -0.246 N 
ATOM     18  C   UNL     1      37.514  -1.262  27.220  0.00  0.00    +0.109 A 
ATOM     19  C   UNL     1      36.811  -2.093  26.363  0.00  0.00    +0.090 A 
ATOM     20  C   UNL     1      37.389  -3.173  25.703  0.00  0.00    +0.030 A 
ATOM     21  C   UNL     1      38.753  -3.380  25.957  0.00  0.00    -0.002 A 
ATOM     22  C   UNL     1      39.476  -2.540  26.823  0.00  0.00    +0.007 A 
ATOM     23  C   UNL     1      38.870  -1.457  27.477  0.00  0.00    +0.037 A 
ATOM     24  H   UNL     1      36.861   0.430  28.342  0.00  0.00    +0.235 HD
ATOM     25  N   UNL     1      35.565  -1.605  26.362  0.00  0.00    -0.247 NA
ENDBRANCH  10  16
BRANCH   3  26
ATOM     26  O   UNL     1      26.163   2.719  28.909  0.00  0.00    -0.339 OA
ATOM     27  H   UNL     1      26.099   3.281  29.672  0.00  0.00    +0.246 HD
ENDBRANCH   3  26
BRANCH   9  28
ATOM     28  C   UNL     1      33.845  -1.386  29.386  0.00  0.00    +0.179 C 
BRANCH  28  29
ATOM     29  C   UNL     1      32.943  -2.285  28.675  0.00  0.00    +0.089 C 
ATOM     30  N   UNL     1      32.227  -2.997  28.109  0.00  0.00    -0.304 NA
ENDBRANCH  28  29
ENDBRANCH   9  28
TORSDOF 4
ENDMDL
