MODEL 1
REMARK VINA RESULT:   -10.735      0.000      0.000
REMARK INTER + INTRA:         -10.032
REMARK INTER:                  -9.860
REMARK INTRA:                  -0.173
REMARK UNBOUND:                 3.213
REMARK  Name = scaffold
REMARK  6 active torsions:
REMARK  status: ('A' for Active; 'I' for Inactive)
REMARK    1  A    between atoms: C_3  and  O_4
REMARK    2  A    between atoms: C_5  and  C_17
REMARK    3  A    between atoms: C_15  and  C_20
REMARK    4  A    between atoms: C_15  and  C_23
REMARK    5  A    between atoms: C_16  and  C_17
REMARK    6  A    between atoms: C_23  and  O_25
REMARK                            x       y       z     vdW  Elec       q    Type
REMARK                         _______ _______ _______ _____ _____    ______ ____
ROOT
ATOM      1  C   UNL     1      27.554  -1.839  28.039  0.00  0.00    -0.024 A 
ATOM      2  C   UNL     1      26.185  -1.683  27.806  0.00  0.00    +0.000 A 
ATOM      3  C   UNL     1      25.700  -0.508  27.231  0.00  0.00    +0.074 A 
ATOM      4  C   UNL     1      26.596   0.525  26.939  0.00  0.00    +0.008 A 
ATOM      5  C   UNL     1      27.967   0.367  27.180  0.00  0.00    -0.049 A 
ATOM      6  C   UNL     1      28.879   1.573  26.942  0.00  0.00    +0.058 C 
ATOM      7  C   UNL     1      30.301   1.360  27.523  0.00  0.00    +0.018 C 
ATOM      8  C   UNL     1      30.845  -0.015  27.046  0.00  0.00    +0.000 C 
ATOM      9  C   UNL     1      32.370  -0.246  27.331  0.00  0.00    -0.004 C 
ATOM     10  C   UNL     1      32.846  -1.662  26.842  0.00  0.00    +0.006 C 
ATOM     11  C   UNL     1      32.930  -1.762  25.285  0.00  0.00    -0.039 C 
ATOM     12  C   UNL     1      31.896  -2.766  27.397  0.00  0.00    -0.032 C 
ATOM     13  C   UNL     1      30.399  -2.495  27.099  0.00  0.00    +0.006 C 
ATOM     14  C   UNL     1      29.987  -1.130  27.715  0.00  0.00    +0.030 C 
ATOM     15  C   UNL     1      28.470  -0.859  27.635  0.00  0.00    -0.048 A 
ENDROOT
BRANCH   3  16
ATOM     16  O   UNL     1      24.331  -0.389  26.968  0.00  0.00    -0.339 OA
ATOM     17  H   UNL     1      24.109   0.310  26.363  0.00  0.00    +0.246 HD
ENDBRANCH   3  16
BRANCH   9  18
ATOM     18  C   UNL     1      32.534  -0.197  28.884  0.00  0.00    +0.179 C 
BRANCH  18  19
ATOM     19  C   UNL     1      33.400   0.874  29.366  0.00  0.00    +0.089 C 
ATOM     20  N   UNL     1      34.093   1.722  29.742  0.00  0.00    -0.304 NA
ENDBRANCH  18  19
ENDBRANCH   9  18
BRANCH  10  21
ATOM     21  C   UNL     1      34.196  -1.969  27.473  0.00  0.00    +0.114 C 
BRANCH  21  22
ATOM     22  O   UNL     1      35.355  -1.441  27.170  0.00  0.00    -0.246 OA
ATOM     23  H   UNL     1      35.941  -2.121  26.859  0.00  0.00    +0.000 HD
ENDBRANCH  21  22
ENDBRANCH  10  21
TORSDOF 5
ENDMDL
MODEL 2
REMARK VINA RESULT:   -10.692      1.983      3.317
REMARK INTER + INTRA:          -9.980
REMARK INTER:                 -10.149
REMARK INTRA:                   0.169
REMARK UNBOUND:                 3.213
REMARK  Name = scaffold
REMARK  6 active torsions:
REMARK  status: ('A' for Active; 'I' for Inactive)
REMARK    1  A    between atoms: C_3  and  O_4
REMARK    2  A    between atoms: C_5  and  C_17
REMARK    3  A    between atoms: C_15  and  C_20
REMARK    4  A    between atoms: C_15  and  C_23
REMARK    5  A    between atoms: C_16  and  C_17
REMARK    6  A    between atoms: C_23  and  O_25
REMARK                            x       y       z     vdW  Elec       q    Type
REMARK                         _______ _______ _______ _____ _____    ______ ____
ROOT
ATOM      1  C   UNL     1      28.088   0.341  26.413  0.00  0.00    -0.024 A 
ATOM      2  C   UNL     1      26.707   0.255  26.611  0.00  0.00    +0.000 A 
ATOM      3  C   UNL     1      26.169  -0.791  27.363  0.00  0.00    +0.074 A 
ATOM      4  C   UNL     1      27.026  -1.772  27.871  0.00  0.00    +0.008 A 
ATOM      5  C   UNL     1      28.409  -1.686  27.664  0.00  0.00    -0.049 A 
ATOM      6  C   UNL     1      29.279  -2.848  28.150  0.00  0.00    +0.058 C 
ATOM      7  C   UNL     1      30.727  -2.768  27.602  0.00  0.00    +0.018 C 
ATOM      8  C   UNL     1      31.289  -1.342  27.853  0.00  0.00    +0.000 C 
ATOM      9  C   UNL     1      32.828  -1.194  27.597  0.00  0.00    -0.004 C 
ATOM     10  C   UNL     1      33.323   0.277  27.848  0.00  0.00    +0.006 C 
ATOM     11  C   UNL     1      33.348   0.650  29.365  0.00  0.00    -0.039 C 
ATOM     12  C   UNL     1      32.424   1.283  27.068  0.00  0.00    -0.032 C 
ATOM     13  C   UNL     1      30.910   1.098  27.344  0.00  0.00    +0.006 C 
ATOM     14  C   UNL     1      30.487  -0.346  26.962  0.00  0.00    +0.030 C 
ATOM     15  C   UNL     1      28.961  -0.570  27.023  0.00  0.00    -0.048 A 
ENDROOT
BRANCH   3  16
ATOM     16  O   UNL     1      24.789  -0.835  27.584  0.00  0.00    -0.339 OA
ATOM     17  H   UNL     1      24.406  -1.701  27.494  0.00  0.00    +0.246 HD
ENDBRANCH   3  16
BRANCH   9  18
ATOM     18  C   UNL     1      33.052  -1.520  26.085  0.00  0.00    +0.179 C 
BRANCH  18  19
ATOM     19  C   UNL     1      33.222  -2.939  25.792  0.00  0.00    +0.089 C 
ATOM     20  N   UNL     1      33.353  -4.068  25.568  0.00  0.00    -0.304 NA
ENDBRANCH  18  19
ENDBRANCH   9  18
BRANCH  10  21
ATOM     21  C   UNL     1      34.703   0.442  27.232  0.00  0.00    +0.114 C 
BRANCH  21  22
ATOM     22  O   UNL     1      35.296   1.559  26.893  0.00  0.00    -0.246 OA
ATOM     23  H   UNL     1      34.737   2.294  27.117  0.00  0.00    +0.000 HD
ENDBRANCH  21  22
ENDBRANCH  10  21
TORSDOF 5
ENDMDL
MODEL 3
REMARK VINA RESULT:   -10.322      1.470      1.756
REMARK INTER + INTRA:          -9.524
REMARK INTER:                  -9.856
REMARK INTRA:                   0.332
REMARK UNBOUND:                 3.213
REMARK  Name = scaffold
REMARK  6 active torsions:
REMARK  status: ('A' for Active; 'I' for Inactive)
REMARK    1  A    between atoms: C_3  and  O_4
REMARK    2  A    between atoms: C_5  and  C_17
REMARK    3  A    between atoms: C_15  and  C_20
REMARK    4  A    between atoms: C_15  and  C_23
REMARK    5  A    between atoms: C_16  and  C_17
REMARK    6  A    between atoms: C_23  and  O_25
REMARK                            x       y       z     vdW  Elec       q    Type
REMARK                         _______ _______ _______ _____ _____    ______ ____
ROOT
ATOM      1  C   UNL     1      28.671  -1.427  27.142  0.00  0.00    -0.024 A 
ATOM      2  C   UNL     1      27.293  -1.527  26.931  0.00  0.00    +0.000 A 
ATOM      3  C   UNL     1      26.488  -0.389  26.993  0.00  0.00    +0.074 A 
ATOM      4  C   UNL     1      27.074   0.839  27.316  0.00  0.00    +0.008 A 
ATOM      5  C   UNL     1      28.455   0.935  27.533  0.00  0.00    -0.049 A 
ATOM      6  C   UNL     1      29.017   2.283  27.990  0.00  0.00    +0.058 C 
ATOM      7  C   UNL     1      30.485   2.175  28.476  0.00  0.00    +0.018 C 
ATOM      8  C   UNL     1      31.319   1.412  27.410  0.00  0.00    +0.000 C 
ATOM      9  C   UNL     1      32.870   1.463  27.638  0.00  0.00    -0.004 C 
ATOM     10  C   UNL     1      33.648   0.654  26.537  0.00  0.00    +0.006 C 
ATOM     11  C   UNL     1      33.639   1.371  25.149  0.00  0.00    -0.039 C 
ATOM     12  C   UNL     1      33.047  -0.777  26.402  0.00  0.00    -0.032 C 
ATOM     13  C   UNL     1      31.512  -0.782  26.185  0.00  0.00    +0.006 C 
ATOM     14  C   UNL     1      30.819  -0.063  27.374  0.00  0.00    +0.030 C 
ATOM     15  C   UNL     1      29.280  -0.182  27.343  0.00  0.00    -0.048 A 
ENDROOT
BRANCH   3  16
ATOM     16  O   UNL     1      25.118  -0.504  26.737  0.00  0.00    -0.339 OA
ATOM     17  H   UNL     1      24.830  -1.387  26.536  0.00  0.00    +0.246 HD
ENDBRANCH   3  16
BRANCH   9  18
ATOM     18  C   UNL     1      33.130   0.768  29.014  0.00  0.00    +0.179 C 
BRANCH  18  19
ATOM     19  C   UNL     1      34.292   1.276  29.736  0.00  0.00    +0.089 C 
ATOM     20  N   UNL     1      35.213   1.687  30.304  0.00  0.00    -0.304 NA
ENDBRANCH  18  19
ENDBRANCH   9  18
BRANCH  10  21
ATOM     21  C   UNL     1      35.074   0.425  27.014  0.00  0.00    +0.114 C 
BRANCH  21  22
ATOM     22  O   UNL     1      36.126   1.163  26.763  0.00  0.00    -0.246 OA
ATOM     23  H   UNL     1      35.923   1.777  26.066  0.00  0.00    +0.000 HD
ENDBRANCH  21  22
ENDBRANCH  10  21
TORSDOF 5
ENDMDL
MODEL 4
REMARK VINA RESULT:    -9.550      2.435      6.803
REMARK INTER + INTRA:          -8.570
REMARK INTER:                  -8.400
REMARK INTRA:                  -0.170
REMARK UNBOUND:                 3.213
REMARK  Name = scaffold
REMARK  6 active torsions:
REMARK  status: ('A' for Active; 'I' for Inactive)
REMARK    1  A    between atoms: C_3  and  O_4
REMARK    2  A    between atoms: C_5  and  C_17
REMARK    3  A    between atoms: C_15  and  C_20
REMARK    4  A    between atoms: C_15  and  C_23
REMARK    5  A    between atoms: C_16  and  C_17
REMARK    6  A    between atoms: C_23  and  O_25
REMARK                            x       y       z     vdW  Elec       q    Type
REMARK                         _______ _______ _______ _____ _____    ______ ____
ROOT
ATOM      1  C   UNL     1      33.989  -0.557  28.993  0.00  0.00    -0.024 A 
ATOM      2  C   UNL     1      35.383  -0.604  28.909  0.00  0.00    +0.000 A 
ATOM      3  C   UNL     1      36.001  -1.146  27.781  0.00  0.00    +0.074 A 
ATOM      4  C   UNL     1      35.206  -1.684  26.764  0.00  0.00    +0.008 A 
ATOM      5  C   UNL     1      33.809  -1.641  26.855  0.00  0.00    -0.049 A 
ATOM      6  C   UNL     1      32.998  -2.342  25.763  0.00  0.00    +0.058 C 
ATOM      7  C   UNL     1      31.499  -2.476  26.136  0.00  0.00    +0.018 C 
ATOM      8  C   UNL     1      30.965  -1.094  26.602  0.00  0.00    +0.000 C 
ATOM      9  C   UNL     1      29.406  -1.015  26.752  0.00  0.00    -0.004 C 
ATOM     10  C   UNL     1      28.940   0.403  27.246  0.00  0.00    +0.006 C 
ATOM     11  C   UNL     1      29.077   1.499  26.141  0.00  0.00    -0.039 C 
ATOM     12  C   UNL     1      29.747   0.820  28.512  0.00  0.00    -0.032 C 
ATOM     13  C   UNL     1      31.282   0.720  28.324  0.00  0.00    +0.006 C 
ATOM     14  C   UNL     1      31.664  -0.737  27.948  0.00  0.00    +0.030 C 
ATOM     15  C   UNL     1      33.188  -0.980  27.924  0.00  0.00    -0.048 A 
ENDROOT
BRANCH   3  16
ATOM     16  O   UNL     1      37.397  -1.146  27.699  0.00  0.00    -0.339 OA
ATOM     17  H   UNL     1      37.737  -1.175  26.811  0.00  0.00    +0.246 HD
ENDBRANCH   3  16
BRANCH   9  18
ATOM     18  C   UNL     1      29.022  -2.054  27.853  0.00  0.00    +0.179 C 
BRANCH  18  19
ATOM     19  C   UNL     1      28.296  -3.218  27.357  0.00  0.00    +0.089 C 
ATOM     20  N   UNL     1      27.721  -4.139  26.955  0.00  0.00    -0.304 NA
ENDBRANCH  18  19
ENDBRANCH   9  18
BRANCH  10  21
ATOM     21  C   UNL     1      27.500   0.304  27.727  0.00  0.00    +0.114 C 
BRANCH  21  22
ATOM     22  O   UNL     1      26.413   0.317  26.997  0.00  0.00    -0.246 OA
ATOM     23  H   UNL     1      26.107   1.211  26.901  0.00  0.00    +0.000 HD
ENDBRANCH  21  22
ENDBRANCH  10  21
TORSDOF 5
ENDMDL
MODEL 5
REMARK VINA RESULT:    -9.338      2.544      5.695
REMARK INTER + INTRA:          -8.309
REMARK INTER:                  -8.195
REMARK INTRA:                  -0.114
REMARK UNBOUND:                 3.213
REMARK  Name = scaffold
REMARK  6 active torsions:
REMARK  status: ('A' for Active; 'I' for Inactive)
REMARK    1  A    between atoms: C_3  and  O_4
REMARK    2  A    between atoms: C_5  and  C_17
REMARK    3  A    between atoms: C_15  and  C_20
REMARK    4  A    between atoms: C_15  and  C_23
REMARK    5  A    between atoms: C_16  and  C_17
REMARK    6  A    between atoms: C_23  and  O_25
REMARK                            x       y       z     vdW  Elec       q    Type
REMARK                         _______ _______ _______ _____ _____    ______ ____
ROOT
ATOM      1  C   UNL     1      31.770  -1.648  23.183  0.00  0.00    -0.024 A 
ATOM      2  C   UNL     1      32.073  -2.634  22.240  0.00  0.00    +0.000 A 
ATOM      3  C   UNL     1      32.554  -3.877  22.653  0.00  0.00    +0.074 A 
ATOM      4  C   UNL     1      32.772  -4.101  24.017  0.00  0.00    +0.008 A 
ATOM      5  C   UNL     1      32.474  -3.108  24.958  0.00  0.00    -0.049 A 
ATOM      6  C   UNL     1      32.838  -3.374  26.421  0.00  0.00    +0.058 C 
ATOM      7  C   UNL     1      32.732  -2.099  27.296  0.00  0.00    +0.018 C 
ATOM      8  C   UNL     1      31.356  -1.423  27.047  0.00  0.00    +0.000 C 
ATOM      9  C   UNL     1      31.000  -0.280  28.058  0.00  0.00    -0.004 C 
ATOM     10  C   UNL     1      29.606   0.372  27.734  0.00  0.00    +0.006 C 
ATOM     11  C   UNL     1      28.408  -0.567  28.084  0.00  0.00    -0.039 C 
ATOM     12  C   UNL     1      29.543   0.778  26.230  0.00  0.00    -0.032 C 
ATOM     13  C   UNL     1      29.909  -0.379  25.266  0.00  0.00    +0.006 C 
ATOM     14  C   UNL     1      31.342  -0.886  25.584  0.00  0.00    +0.030 C 
ATOM     15  C   UNL     1      31.869  -1.909  24.556  0.00  0.00    -0.048 A 
ENDROOT
BRANCH   3  16
ATOM     16  O   UNL     1      32.811  -4.864  21.697  0.00  0.00    -0.339 OA
ATOM     17  H   UNL     1      33.304  -5.608  22.025  0.00  0.00    +0.246 HD
ENDBRANCH   3  16
BRANCH   9  18
ATOM     18  C   UNL     1      32.095   0.820  27.875  0.00  0.00    +0.179 C 
BRANCH  18  19
ATOM     19  C   UNL     1      32.858   1.119  29.083  0.00  0.00    +0.089 C 
ATOM     20  N   UNL     1      33.466   1.364  30.037  0.00  0.00    -0.304 NA
ENDBRANCH  18  19
ENDBRANCH   9  18
BRANCH  10  21
ATOM     21  C   UNL     1      29.494   1.689  28.488  0.00  0.00    +0.114 C 
BRANCH  21  22
ATOM     22  O   UNL     1      28.485   2.523  28.487  0.00  0.00    -0.246 OA
ATOM     23  H   UNL     1      28.773   3.369  28.811  0.00  0.00    +0.000 HD
ENDBRANCH  21  22
ENDBRANCH  10  21
TORSDOF 5
ENDMDL
MODEL 6
REMARK VINA RESULT:    -9.289      3.169      5.548
REMARK INTER + INTRA:          -8.248
REMARK INTER:                  -8.074
REMARK INTRA:                  -0.174
REMARK UNBOUND:                 3.213
REMARK  Name = scaffold
REMARK  6 active torsions:
REMARK  status: ('A' for Active; 'I' for Inactive)
REMARK    1  A    between atoms: C_3  and  O_4
REMARK    2  A    between atoms: C_5  and  C_17
REMARK    3  A    between atoms: C_15  and  C_20
REMARK    4  A    between atoms: C_15  and  C_23
REMARK    5  A    between atoms: C_16  and  C_17
REMARK    6  A    between atoms: C_23  and  O_25
REMARK                            x       y       z     vdW  Elec       q    Type
REMARK                         _______ _______ _______ _____ _____    ______ ____
ROOT
ATOM      1  C   UNL     1      32.173  -1.562  23.271  0.00  0.00    -0.024 A 
ATOM      2  C   UNL     1      32.041  -2.489  22.233  0.00  0.00    +0.000 A 
ATOM      3  C   UNL     1      32.215  -3.851  22.481  0.00  0.00    +0.074 A 
ATOM      4  C   UNL     1      32.569  -4.267  23.768  0.00  0.00    +0.008 A 
ATOM      5  C   UNL     1      32.707  -3.335  24.805  0.00  0.00    -0.049 A 
ATOM      6  C   UNL     1      33.202  -3.840  26.162  0.00  0.00    +0.058 C 
ATOM      7  C   UNL     1      33.591  -2.681  27.116  0.00  0.00    +0.018 C 
ATOM      8  C   UNL     1      32.436  -1.644  27.154  0.00  0.00    +0.000 C 
ATOM      9  C   UNL     1      32.571  -0.559  28.278  0.00  0.00    -0.004 C 
ATOM     10  C   UNL     1      31.382   0.468  28.243  0.00  0.00    +0.006 C 
ATOM     11  C   UNL     1      30.038  -0.152  28.743  0.00  0.00    -0.039 C 
ATOM     12  C   UNL     1      31.204   1.031  26.800  0.00  0.00    -0.032 C 
ATOM     13  C   UNL     1      31.081  -0.073  25.720  0.00  0.00    +0.006 C 
ATOM     14  C   UNL     1      32.348  -0.971  25.751  0.00  0.00    +0.030 C 
ATOM     15  C   UNL     1      32.405  -1.983  24.587  0.00  0.00    -0.048 A 
ENDROOT
BRANCH   3  16
ATOM     16  O   UNL     1      32.037  -4.765  21.437  0.00  0.00    -0.339 OA
ATOM     17  H   UNL     1      32.358  -4.464  20.594  0.00  0.00    +0.246 HD
ENDBRANCH   3  16
BRANCH   9  18
ATOM     18  C   UNL     1      33.888   0.225  27.970  0.00  0.00    +0.179 C 
BRANCH  18  19
ATOM     19  C   UNL     1      34.965  -0.004  28.927  0.00  0.00    +0.089 C 
ATOM     20  N   UNL     1      35.819  -0.195  29.685  0.00  0.00    -0.304 NA
ENDBRANCH  18  19
ENDBRANCH   9  18
BRANCH  10  21
ATOM     21  C   UNL     1      31.758   1.681  29.081  0.00  0.00    +0.114 C 
BRANCH  21  22
ATOM     22  O   UNL     1      31.830   1.755  30.386  0.00  0.00    -0.246 OA
ATOM     23  H   UNL     1      30.967   1.932  30.742  0.00  0.00    +0.000 HD
ENDBRANCH  21  22
ENDBRANCH  10  21
TORSDOF 5
ENDMDL
MODEL 7
REMARK VINA RESULT:    -8.883      8.463     10.749
REMARK INTER + INTRA:          -7.747
REMARK INTER:                  -8.008
REMARK INTRA:                   0.261
REMARK UNBOUND:                 3.213
REMARK  Name = scaffold
REMARK  6 active torsions:
REMARK  status: ('A' for Active; 'I' for Inactive)
REMARK    1  A    between atoms: C_3  and  O_4
REMARK    2  A    between atoms: C_5  and  C_17
REMARK    3  A    between atoms: C_15  and  C_20
REMARK    4  A    between atoms: C_15  and  C_23
REMARK    5  A    between atoms: C_16  and  C_17
REMARK    6  A    between atoms: C_23  and  O_25
REMARK                            x       y       z     vdW  Elec       q    Type
REMARK                         _______ _______ _______ _____ _____    ______ ____
ROOT
ATOM      1  C   UNL     1      33.778  -3.378  20.817  0.00  0.00    -0.024 A 
ATOM      2  C   UNL     1      32.994  -4.293  21.525  0.00  0.00    +0.000 A 
ATOM      3  C   UNL     1      31.763  -4.706  21.013  0.00  0.00    +0.074 A 
ATOM      4  C   UNL     1      31.309  -4.155  19.811  0.00  0.00    +0.008 A 
ATOM      5  C   UNL     1      32.095  -3.233  19.108  0.00  0.00    -0.049 A 
ATOM      6  C   UNL     1      31.495  -2.586  17.858  0.00  0.00    +0.058 C 
ATOM      7  C   UNL     1      32.336  -1.385  17.355  0.00  0.00    +0.018 C 
ATOM      8  C   UNL     1      33.826  -1.813  17.254  0.00  0.00    +0.000 C 
ATOM      9  C   UNL     1      34.748  -0.789  16.506  0.00  0.00    -0.004 C 
ATOM     10  C   UNL     1      36.242  -1.276  16.461  0.00  0.00    +0.006 C 
ATOM     11  C   UNL     1      36.454  -2.472  15.479  0.00  0.00    -0.039 C 
ATOM     12  C   UNL     1      36.719  -1.671  17.892  0.00  0.00    -0.032 C 
ATOM     13  C   UNL     1      35.776  -2.678  18.598  0.00  0.00    +0.006 C 
ATOM     14  C   UNL     1      34.350  -2.069  18.699  0.00  0.00    +0.030 C 
ATOM     15  C   UNL     1      33.386  -2.917  19.554  0.00  0.00    -0.048 A 
ENDROOT
BRANCH   3  16
ATOM     16  O   UNL     1      31.013  -5.654  21.716  0.00  0.00    -0.339 OA
ATOM     17  H   UNL     1      31.385  -6.529  21.712  0.00  0.00    +0.246 HD
ENDBRANCH   3  16
BRANCH   9  18
ATOM     18  C   UNL     1      34.701   0.531  17.341  0.00  0.00    +0.179 C 
BRANCH  18  19
ATOM     19  C   UNL     1      34.805   1.751  16.548  0.00  0.00    +0.089 C 
ATOM     20  N   UNL     1      34.893   2.723  15.925  0.00  0.00    -0.304 NA
ENDBRANCH  18  19
ENDBRANCH   9  18
BRANCH  10  21
ATOM     21  C   UNL     1      37.128  -0.101  16.075  0.00  0.00    +0.114 C 
BRANCH  21  22
ATOM     22  O   UNL     1      38.332   0.166  16.516  0.00  0.00    -0.246 OA
ATOM     23  H   UNL     1      38.447   1.108  16.572  0.00  0.00    +0.000 HD
ENDBRANCH  21  22
ENDBRANCH  10  21
TORSDOF 5
ENDMDL
MODEL 8
REMARK VINA RESULT:    -8.862      2.308      3.919
REMARK INTER + INTRA:          -7.721
REMARK INTER:                  -7.609
REMARK INTRA:                  -0.112
REMARK UNBOUND:                 3.213
REMARK  Name = scaffold
REMARK  6 active torsions:
REMARK  status: ('A' for Active; 'I' for Inactive)
REMARK    1  A    between atoms: C_3  and  O_4
REMARK    2  A    between atoms: C_5  and  C_17
REMARK    3  A    between atoms: C_15  and  C_20
REMARK    4  A    between atoms: C_15  and  C_23
REMARK    5  A    between atoms: C_16  and  C_17
REMARK    6  A    between atoms: C_23  and  O_25
REMARK                            x       y       z     vdW  Elec       q    Type
REMARK                         _______ _______ _______ _____ _____    ______ ____
ROOT
ATOM      1  C   UNL     1      29.349  -0.699  26.201  0.00  0.00    -0.024 A 
ATOM      2  C   UNL     1      28.201  -1.481  26.046  0.00  0.00    +0.000 A 
ATOM      3  C   UNL     1      28.142  -2.760  26.600  0.00  0.00    +0.074 A 
ATOM      4  C   UNL     1      29.264  -3.262  27.268  0.00  0.00    +0.008 A 
ATOM      5  C   UNL     1      30.415  -2.478  27.415  0.00  0.00    -0.049 A 
ATOM      6  C   UNL     1      31.644  -3.123  28.059  0.00  0.00    +0.058 C 
ATOM      7  C   UNL     1      32.920  -2.258  27.891  0.00  0.00    +0.018 C 
ATOM      8  C   UNL     1      32.607  -0.801  28.327  0.00  0.00    +0.000 C 
ATOM      9  C   UNL     1      33.867   0.122  28.467  0.00  0.00    -0.004 C 
ATOM     10  C   UNL     1      33.475   1.585  28.889  0.00  0.00    +0.006 C 
ATOM     11  C   UNL     1      33.009   1.676  30.377  0.00  0.00    -0.039 C 
ATOM     12  C   UNL     1      32.359   2.131  27.947  0.00  0.00    -0.032 C 
ATOM     13  C   UNL     1      31.136   1.186  27.831  0.00  0.00    +0.006 C 
ATOM     14  C   UNL     1      31.599  -0.199  27.302  0.00  0.00    +0.030 C 
ATOM     15  C   UNL     1      30.427  -1.148  26.973  0.00  0.00    -0.048 A 
ENDROOT
BRANCH   3  16
ATOM     16  O   UNL     1      26.969  -3.510  26.470  0.00  0.00    -0.339 OA
ATOM     17  H   UNL     1      26.575  -3.767  27.296  0.00  0.00    +0.246 HD
ENDBRANCH   3  16
BRANCH   9  18
ATOM     18  C   UNL     1      34.516   0.192  27.047  0.00  0.00    +0.179 C 
BRANCH  18  19
ATOM     19  C   UNL     1      35.918  -0.209  27.004  0.00  0.00    +0.089 C 
ATOM     20  N   UNL     1      37.032  -0.523  26.977  0.00  0.00    -0.304 NA
ENDBRANCH  18  19
ENDBRANCH   9  18
BRANCH  10  21
ATOM     21  C   UNL     1      34.664   2.501  28.641  0.00  0.00    +0.114 C 
BRANCH  21  22
ATOM     22  O   UNL     1      35.830   2.470  29.236  0.00  0.00    -0.246 OA
ATOM     23  H   UNL     1      36.466   2.939  28.709  0.00  0.00    +0.000 HD
ENDBRANCH  21  22
ENDBRANCH  10  21
TORSDOF 5
ENDMDL
MODEL 9
REMARK VINA RESULT:    -8.813      1.956      6.316
REMARK INTER + INTRA:          -7.661
REMARK INTER:                  -7.592
REMARK INTRA:                  -0.069
REMARK UNBOUND:                 3.213
REMARK  Name = scaffold
REMARK  6 active torsions:
REMARK  status: ('A' for Active; 'I' for Inactive)
REMARK    1  A    between atoms: C_3  and  O_4
REMARK    2  A    between atoms: C_5  and  C_17
REMARK    3  A    between atoms: C_15  and  C_20
REMARK    4  A    between atoms: C_15  and  C_23
REMARK    5  A    between atoms: C_16  and  C_17
REMARK    6  A    between atoms: C_23  and  O_25
REMARK                            x       y       z     vdW  Elec       q    Type
REMARK                         _______ _______ _______ _____ _____    ______ ____
ROOT
ATOM      1  C   UNL     1      33.884  -0.951  26.437  0.00  0.00    -0.024 A 
ATOM      2  C   UNL     1      35.226  -1.149  26.772  0.00  0.00    +0.000 A 
ATOM      3  C   UNL     1      35.640  -1.051  28.101  0.00  0.00    +0.074 A 
ATOM      4  C   UNL     1      34.703  -0.705  29.080  0.00  0.00    +0.008 A 
ATOM      5  C   UNL     1      33.359  -0.501  28.739  0.00  0.00    -0.049 A 
ATOM      6  C   UNL     1      32.407  -0.018  29.836  0.00  0.00    +0.058 C 
ATOM      7  C   UNL     1      31.043   0.448  29.267  0.00  0.00    +0.018 C 
ATOM      8  C   UNL     1      30.488  -0.645  28.313  0.00  0.00    +0.000 C 
ATOM      9  C   UNL     1      28.996  -0.433  27.878  0.00  0.00    -0.004 C 
ATOM     10  C   UNL     1      28.510  -1.562  26.898  0.00  0.00    +0.006 C 
ATOM     11  C   UNL     1      28.301  -2.933  27.618  0.00  0.00    -0.039 C 
ATOM     12  C   UNL     1      29.523  -1.725  25.725  0.00  0.00    -0.032 C 
ATOM     13  C   UNL     1      30.985  -1.925  26.199  0.00  0.00    +0.006 C 
ATOM     14  C   UNL     1      31.419  -0.712  27.066  0.00  0.00    +0.030 C 
ATOM     15  C   UNL     1      32.919  -0.727  27.428  0.00  0.00    -0.048 A 
ENDROOT
BRANCH   3  16
ATOM     16  O   UNL     1      36.980  -1.293  28.421  0.00  0.00    -0.339 OA
ATOM     17  H   UNL     1      37.134  -2.124  28.856  0.00  0.00    +0.246 HD
ENDBRANCH   3  16
BRANCH   9  18
ATOM     18  C   UNL     1      28.958   0.922  27.101  0.00  0.00    +0.179 C 
BRANCH  18  19
ATOM     19  C   UNL     1      28.451   2.048  27.877  0.00  0.00    +0.089 C 
ATOM     20  N   UNL     1      28.048   2.937  28.501  0.00  0.00    -0.304 NA
ENDBRANCH  18  19
ENDBRANCH   9  18
BRANCH  10  21
ATOM     21  C   UNL     1      27.222  -1.107  26.228  0.00  0.00    +0.114 C 
BRANCH  21  22
ATOM     22  O   UNL     1      26.081  -0.824  26.805  0.00  0.00    -0.246 OA
ATOM     23  H   UNL     1      25.889   0.099  26.690  0.00  0.00    +0.000 HD
ENDBRANCH  21  22
ENDBRANCH  10  21
TORSDOF 5
ENDMDL
MODEL 10
REMARK VINA RESULT:    -8.686      3.816      5.253
REMARK INTER + INTRA:          -7.504
REMARK INTER:                  -7.333
REMARK INTRA:                  -0.171
REMARK UNBOUND:                 3.213
REMARK  Name = scaffold
REMARK  6 active torsions:
REMARK  status: ('A' for Active; 'I' for Inactive)
REMARK    1  A    between atoms: C_3  and  O_4
REMARK    2  A    between atoms: C_5  and  C_17
REMARK    3  A    between atoms: C_15  and  C_20
REMARK    4  A    between atoms: C_15  and  C_23
REMARK    5  A    between atoms: C_16  and  C_17
REMARK    6  A    between atoms: C_23  and  O_25
REMARK                            x       y       z     vdW  Elec       q    Type
REMARK                         _______ _______ _______ _____ _____    ______ ____
ROOT
ATOM      1  C   UNL     1      32.676  -3.861  24.742  0.00  0.00    -0.024 A 
ATOM      2  C   UNL     1      32.571  -4.565  23.539  0.00  0.00    +0.000 A 
ATOM      3  C   UNL     1      32.296  -3.888  22.351  0.00  0.00    +0.074 A 
ATOM      4  C   UNL     1      32.080  -2.506  22.391  0.00  0.00    +0.008 A 
ATOM      5  C   UNL     1      32.179  -1.805  23.600  0.00  0.00    -0.049 A 
ATOM      6  C   UNL     1      31.824  -0.317  23.596  0.00  0.00    +0.058 C 
ATOM      7  C   UNL     1      31.688   0.260  25.028  0.00  0.00    +0.018 C 
ATOM      8  C   UNL     1      32.937  -0.142  25.860  0.00  0.00    +0.000 C 
ATOM      9  C   UNL     1      33.066   0.594  27.239  0.00  0.00    -0.004 C 
ATOM     10  C   UNL     1      34.338   0.123  28.034  0.00  0.00    +0.006 C 
ATOM     11  C   UNL     1      35.667   0.657  27.411  0.00  0.00    -0.039 C 
ATOM     12  C   UNL     1      34.374  -1.434  28.111  0.00  0.00    -0.032 C 
ATOM     13  C   UNL     1      34.236  -2.121  26.728  0.00  0.00    +0.006 C 
ATOM     14  C   UNL     1      32.901  -1.686  26.064  0.00  0.00    +0.030 C 
ATOM     15  C   UNL     1      32.584  -2.463  24.769  0.00  0.00    -0.048 A 
ENDROOT
BRANCH   3  16
ATOM     16  O   UNL     1      32.236  -4.605  21.152  0.00  0.00    -0.339 OA
ATOM     17  H   UNL     1      31.413  -5.058  21.007  0.00  0.00    +0.246 HD
ENDBRANCH   3  16
BRANCH   9  18
ATOM     18  C   UNL     1      31.806   0.187  28.069  0.00  0.00    +0.179 C 
BRANCH  18  19
ATOM     19  C   UNL     1      30.886   1.284  28.345  0.00  0.00    +0.089 C 
ATOM     20  N   UNL     1      30.147   2.149  28.564  0.00  0.00    -0.304 NA
ENDBRANCH  18  19
ENDBRANCH   9  18
BRANCH  10  21
ATOM     21  C   UNL     1      34.204   0.572  29.481  0.00  0.00    +0.114 C 
BRANCH  21  22
ATOM     22  O   UNL     1      34.247   1.797  29.942  0.00  0.00    -0.246 OA
ATOM     23  H   UNL     1      33.998   2.403  29.254  0.00  0.00    +0.000 HD
ENDBRANCH  21  22
ENDBRANCH  10  21
TORSDOF 5
ENDMDL
MODEL 11
REMARK VINA RESULT:    -8.447      1.927      2.788
REMARK INTER + INTRA:          -7.210
REMARK INTER:                  -7.677
REMARK INTRA:                   0.467
REMARK UNBOUND:                 3.213
REMARK  Name = scaffold
REMARK  6 active torsions:
REMARK  status: ('A' for Active; 'I' for Inactive)
REMARK    1  A    between atoms: C_3  and  O_4
REMARK    2  A    between atoms: C_5  and  C_17
REMARK    3  A    between atoms: C_15  and  C_20
REMARK    4  A    between atoms: C_15  and  C_23
REMARK    5  A    between atoms: C_16  and  C_17
REMARK    6  A    between atoms: C_23  and  O_25
REMARK                            x       y       z     vdW  Elec       q    Type
REMARK                         _______ _______ _______ _____ _____    ______ ____
ROOT
ATOM      1  C   UNL     1      30.379  -2.892  27.451  0.00  0.00    -0.024 A 
ATOM      2  C   UNL     1      29.247  -3.631  27.096  0.00  0.00    +0.000 A 
ATOM      3  C   UNL     1      27.997  -3.013  27.027  0.00  0.00    +0.074 A 
ATOM      4  C   UNL     1      27.890  -1.660  27.365  0.00  0.00    +0.008 A 
ATOM      5  C   UNL     1      29.026  -0.925  27.727  0.00  0.00    -0.049 A 
ATOM      6  C   UNL     1      28.826   0.520  28.192  0.00  0.00    +0.058 C 
ATOM      7  C   UNL     1      30.104   1.113  28.838  0.00  0.00    +0.018 C 
ATOM      8  C   UNL     1      31.315   0.859  27.898  0.00  0.00    +0.000 C 
ATOM      9  C   UNL     1      32.619   1.636  28.291  0.00  0.00    -0.004 C 
ATOM     10  C   UNL     1      33.806   1.315  27.312  0.00  0.00    +0.006 C 
ATOM     11  C   UNL     1      33.617   1.967  25.905  0.00  0.00    -0.039 C 
ATOM     12  C   UNL     1      33.976  -0.228  27.166  0.00  0.00    -0.032 C 
ATOM     13  C   UNL     1      32.663  -0.957  26.784  0.00  0.00    +0.006 C 
ATOM     14  C   UNL     1      31.581  -0.676  27.863  0.00  0.00    +0.030 C 
ATOM     15  C   UNL     1      30.298  -1.511  27.670  0.00  0.00    -0.048 A 
ENDROOT
BRANCH   3  16
ATOM     16  O   UNL     1      26.885  -3.761  26.629  0.00  0.00    -0.339 OA
ATOM     17  H   UNL     1      26.707  -4.519  27.174  0.00  0.00    +0.246 HD
ENDBRANCH   3  16
BRANCH   9  18
ATOM     18  C   UNL     1      33.020   1.123  29.712  0.00  0.00    +0.179 C 
BRANCH  18  19
ATOM     19  C   UNL     1      32.343   1.802  30.812  0.00  0.00    +0.089 C 
ATOM     20  N   UNL     1      31.813   2.338  31.691  0.00  0.00    -0.304 NA
ENDBRANCH  18  19
ENDBRANCH   9  18
BRANCH  10  21
ATOM     21  C   UNL     1      35.106   1.782  27.949  0.00  0.00    +0.114 C 
BRANCH  21  22
ATOM     22  O   UNL     1      35.900   1.096  28.733  0.00  0.00    -0.246 OA
ATOM     23  H   UNL     1      35.413   0.790  29.488  0.00  0.00    +0.000 HD
ENDBRANCH  21  22
ENDBRANCH  10  21
TORSDOF 5
ENDMDL
MODEL 12
REMARK VINA RESULT:    -8.364      2.838      6.233
REMARK INTER + INTRA:          -7.107
REMARK INTER:                  -7.513
REMARK INTRA:                   0.405
REMARK UNBOUND:                 3.213
REMARK  Name = scaffold
REMARK  6 active torsions:
REMARK  status: ('A' for Active; 'I' for Inactive)
REMARK    1  A    between atoms: C_3  and  O_4
REMARK    2  A    between atoms: C_5  and  C_17
REMARK    3  A    between atoms: C_15  and  C_20
REMARK    4  A    between atoms: C_15  and  C_23
REMARK    5  A    between atoms: C_16  and  C_17
REMARK    6  A    between atoms: C_23  and  O_25
REMARK                            x       y       z     vdW  Elec       q    Type
REMARK                         _______ _______ _______ _____ _____    ______ ____
ROOT
ATOM      1  C   UNL     1      33.211   1.045  26.363  0.00  0.00    -0.024 A 
ATOM      2  C   UNL     1      34.429   1.653  26.678  0.00  0.00    +0.000 A 
ATOM      3  C   UNL     1      34.647   2.171  27.955  0.00  0.00    +0.074 A 
ATOM      4  C   UNL     1      33.613   2.115  28.895  0.00  0.00    +0.008 A 
ATOM      5  C   UNL     1      32.391   1.511  28.574  0.00  0.00    -0.049 A 
ATOM      6  C   UNL     1      31.264   1.581  29.607  0.00  0.00    +0.058 C 
ATOM      7  C   UNL     1      29.897   1.146  29.019  0.00  0.00    +0.018 C 
ATOM      8  C   UNL     1      30.068  -0.212  28.284  0.00  0.00    +0.000 C 
ATOM      9  C   UNL     1      28.722  -0.903  27.873  0.00  0.00    -0.004 C 
ATOM     10  C   UNL     1      28.970  -2.259  27.116  0.00  0.00    +0.006 C 
ATOM     11  C   UNL     1      29.481  -3.391  28.065  0.00  0.00    -0.039 C 
ATOM     12  C   UNL     1      29.983  -2.042  25.952  0.00  0.00    -0.032 C 
ATOM     13  C   UNL     1      31.296  -1.350  26.399  0.00  0.00    +0.006 C 
ATOM     14  C   UNL     1      30.964   0.029  27.032  0.00  0.00    +0.030 C 
ATOM     15  C   UNL     1      32.218   0.876  27.336  0.00  0.00    -0.048 A 
ENDROOT
BRANCH   3  16
ATOM     16  O   UNL     1      35.888   2.737  28.262  0.00  0.00    -0.339 OA
ATOM     17  H   UNL     1      36.415   2.223  28.863  0.00  0.00    +0.246 HD
ENDBRANCH   3  16
BRANCH   9  18
ATOM     18  C   UNL     1      28.015   0.075  26.880  0.00  0.00    +0.179 C 
BRANCH  18  19
ATOM     19  C   UNL     1      26.558   0.000  26.895  0.00  0.00    +0.089 C 
ATOM     20  N   UNL     1      25.402  -0.067  26.902  0.00  0.00    -0.304 NA
ENDBRANCH  18  19
ENDBRANCH   9  18
BRANCH  10  21
ATOM     21  C   UNL     1      27.681  -2.678  26.427  0.00  0.00    +0.114 C 
BRANCH  21  22
ATOM     22  O   UNL     1      27.115  -3.858  26.446  0.00  0.00    -0.246 OA
ATOM     23  H   UNL     1      27.376  -4.321  27.234  0.00  0.00    +0.000 HD
ENDBRANCH  21  22
ENDBRANCH  10  21
TORSDOF 5
ENDMDL
MODEL 13
REMARK VINA RESULT:    -7.908     10.207     12.506
REMARK INTER + INTRA:          -6.545
REMARK INTER:                  -6.430
REMARK INTRA:                  -0.115
REMARK UNBOUND:                 3.213
REMARK  Name = scaffold
REMARK  6 active torsions:
REMARK  status: ('A' for Active; 'I' for Inactive)
REMARK    1  A    between atoms: C_3  and  O_4
REMARK    2  A    between atoms: C_5  and  C_17
REMARK    3  A    between atoms: C_15  and  C_20
REMARK    4  A    between atoms: C_15  and  C_23
REMARK    5  A    between atoms: C_16  and  C_17
REMARK    6  A    between atoms: C_23  and  O_25
REMARK                            x       y       z     vdW  Elec       q    Type
REMARK                         _______ _______ _______ _____ _____    ______ ____
ROOT
ATOM      1  C   UNL     1      34.521   2.643  16.555  0.00  0.00    -0.024 A 
ATOM      2  C   UNL     1      34.710   3.786  15.773  0.00  0.00    +0.000 A 
ATOM      3  C   UNL     1      35.897   3.961  15.060  0.00  0.00    +0.074 A 
ATOM      4  C   UNL     1      36.908   3.001  15.180  0.00  0.00    +0.008 A 
ATOM      5  C   UNL     1      36.717   1.861  15.971  0.00  0.00    -0.049 A 
ATOM      6  C   UNL     1      37.900   0.906  16.148  0.00  0.00    +0.058 C 
ATOM      7  C   UNL     1      37.652  -0.137  17.268  0.00  0.00    +0.018 C 
ATOM      8  C   UNL     1      36.265  -0.801  17.048  0.00  0.00    +0.000 C 
ATOM      9  C   UNL     1      35.997  -2.061  17.942  0.00  0.00    -0.004 C 
ATOM     10  C   UNL     1      34.570  -2.667  17.682  0.00  0.00    +0.006 C 
ATOM     11  C   UNL     1      34.468  -3.391  16.302  0.00  0.00    -0.039 C 
ATOM     12  C   UNL     1      33.489  -1.548  17.777  0.00  0.00    -0.032 C 
ATOM     13  C   UNL     1      33.796  -0.319  16.884  0.00  0.00    +0.006 C 
ATOM     14  C   UNL     1      35.171   0.283  17.285  0.00  0.00    +0.030 C 
ATOM     15  C   UNL     1      35.478   1.621  16.581  0.00  0.00    -0.048 A 
ENDROOT
BRANCH   3  16
ATOM     16  O   UNL     1      36.049   5.090  14.250  0.00  0.00    -0.339 OA
ATOM     17  H   UNL     1      36.807   5.061  13.677  0.00  0.00    +0.246 HD
ENDBRANCH   3  16
BRANCH   9  18
ATOM     18  C   UNL     1      36.041  -1.562  19.422  0.00  0.00    +0.179 C 
BRANCH  18  19
ATOM     19  C   UNL     1      37.258  -1.919  20.144  0.00  0.00    +0.089 C 
ATOM     20  N   UNL     1      38.218  -2.205  20.724  0.00  0.00    -0.304 NA
ENDBRANCH  18  19
ENDBRANCH   9  18
BRANCH  10  21
ATOM     21  C   UNL     1      34.230  -3.622  18.816  0.00  0.00    +0.114 C 
BRANCH  21  22
ATOM     22  O   UNL     1      33.050  -4.092  19.134  0.00  0.00    -0.246 OA
ATOM     23  H   UNL     1      32.377  -3.579  18.702  0.00  0.00    +0.000 HD
ENDBRANCH  21  22
ENDBRANCH  10  21
TORSDOF 5
ENDMDL
MODEL 14
REMARK VINA RESULT:    -7.789      4.805      6.964
REMARK INTER + INTRA:          -6.397
REMARK INTER:                  -6.382
REMARK INTRA:                  -0.015
REMARK UNBOUND:                 3.213
REMARK  Name = scaffold
REMARK  6 active torsions:
REMARK  status: ('A' for Active; 'I' for Inactive)
REMARK    1  A    between atoms: C_3  and  O_4
REMARK    2  A    between atoms: C_5  and  C_17
REMARK    3  A    between atoms: C_15  and  C_20
REMARK    4  A    between atoms: C_15  and  C_23
REMARK    5  A    between atoms: C_16  and  C_17
REMARK    6  A    between atoms: C_23  and  O_25
REMARK                            x       y       z     vdW  Elec       q    Type
REMARK                         _______ _______ _______ _____ _____    ______ ____
ROOT
ATOM      1  C   UNL     1      32.816  -3.844  25.977  0.00  0.00    -0.024 A 
ATOM      2  C   UNL     1      32.488  -3.613  27.316  0.00  0.00    +0.000 A 
ATOM      3  C   UNL     1      31.918  -2.399  27.701  0.00  0.00    +0.074 A 
ATOM      4  C   UNL     1      31.727  -1.404  26.737  0.00  0.00    +0.008 A 
ATOM      5  C   UNL     1      32.063  -1.637  25.397  0.00  0.00    -0.049 A 
ATOM      6  C   UNL     1      31.931  -0.472  24.413  0.00  0.00    +0.058 C 
ATOM      7  C   UNL     1      32.608  -0.772  23.051  0.00  0.00    +0.018 C 
ATOM      8  C   UNL     1      32.127  -2.157  22.538  0.00  0.00    +0.000 C 
ATOM      9  C   UNL     1      32.516  -2.472  21.052  0.00  0.00    -0.004 C 
ATOM     10  C   UNL     1      32.017  -3.896  20.608  0.00  0.00    +0.006 C 
ATOM     11  C   UNL     1      30.468  -3.954  20.413  0.00  0.00    -0.039 C 
ATOM     12  C   UNL     1      32.464  -4.967  21.649  0.00  0.00    -0.032 C 
ATOM     13  C   UNL     1      32.066  -4.613  23.105  0.00  0.00    +0.006 C 
ATOM     14  C   UNL     1      32.694  -3.247  23.496  0.00  0.00    +0.030 C 
ATOM     15  C   UNL     1      32.512  -2.900  24.988  0.00  0.00    -0.048 A 
ENDROOT
BRANCH   3  16
ATOM     16  O   UNL     1      31.559  -2.204  29.038  0.00  0.00    -0.339 OA
ATOM     17  H   UNL     1      31.716  -1.324  29.362  0.00  0.00    +0.246 HD
ENDBRANCH   3  16
BRANCH   9  18
ATOM     18  C   UNL     1      34.078  -2.477  21.002  0.00  0.00    +0.179 C 
BRANCH  18  19
ATOM     19  C   UNL     1      34.648  -1.751  19.873  0.00  0.00    +0.089 C 
ATOM     20  N   UNL     1      35.092  -1.175  18.971  0.00  0.00    -0.304 NA
ENDBRANCH  18  19
ENDBRANCH   9  18
BRANCH  10  21
ATOM     21  C   UNL     1      32.734  -4.288  19.326  0.00  0.00    +0.114 C 
BRANCH  21  22
ATOM     22  O   UNL     1      32.464  -3.889  18.108  0.00  0.00    -0.246 OA
ATOM     23  H   UNL     1      31.631  -3.432  18.102  0.00  0.00    +0.000 HD
ENDBRANCH  21  22
ENDBRANCH  10  21
TORSDOF 5
ENDMDL
MODEL 15
REMARK VINA RESULT:    -7.368      7.169     10.574
REMARK INTER + INTRA:          -5.879
REMARK INTER:                  -5.908
REMARK INTRA:                   0.030
REMARK UNBOUND:                 3.213
REMARK  Name = scaffold
REMARK  6 active torsions:
REMARK  status: ('A' for Active; 'I' for Inactive)
REMARK    1  A    between atoms: C_3  and  O_4
REMARK    2  A    between atoms: C_5  and  C_17
REMARK    3  A    between atoms: C_15  and  C_20
REMARK    4  A    between atoms: C_15  and  C_23
REMARK    5  A    between atoms: C_16  and  C_17
REMARK    6  A    between atoms: C_23  and  O_25
REMARK                            x       y       z     vdW  Elec       q    Type
REMARK                         _______ _______ _______ _____ _____    ______ ____
ROOT
ATOM      1  C   UNL     1      34.476  -0.751  16.965  0.00  0.00    -0.024 A 
ATOM      2  C   UNL     1      35.375  -0.209  16.042  0.00  0.00    +0.000 A 
ATOM      3  C   UNL     1      36.738  -0.156  16.336  0.00  0.00    +0.074 A 
ATOM      4  C   UNL     1      37.180  -0.608  17.584  0.00  0.00    +0.008 A 
ATOM      5  C   UNL     1      36.276  -1.144  18.509  0.00  0.00    -0.049 A 
ATOM      6  C   UNL     1      36.806  -1.518  19.895  0.00  0.00    +0.058 C 
ATOM      7  C   UNL     1      35.665  -1.813  20.902  0.00  0.00    +0.018 C 
ATOM      8  C   UNL     1      34.665  -2.813  20.261  0.00  0.00    +0.000 C 
ATOM      9  C   UNL     1      33.611  -3.409  21.256  0.00  0.00    -0.004 C 
ATOM     10  C   UNL     1      32.620  -4.395  20.535  0.00  0.00    +0.006 C 
ATOM     11  C   UNL     1      33.296  -5.748  20.147  0.00  0.00    -0.039 C 
ATOM     12  C   UNL     1      32.020  -3.716  19.267  0.00  0.00    -0.032 C 
ATOM     13  C   UNL     1      33.095  -3.134  18.314  0.00  0.00    +0.006 C 
ATOM     14  C   UNL     1      33.954  -2.090  19.078  0.00  0.00    +0.030 C 
ATOM     15  C   UNL     1      34.929  -1.318  18.164  0.00  0.00    -0.048 A 
ENDROOT
BRANCH   3  16
ATOM     16  O   UNL     1      37.625   0.352  15.382  0.00  0.00    -0.339 OA
ATOM     17  H   UNL     1      38.328   0.880  15.744  0.00  0.00    +0.246 HD
ENDBRANCH   3  16
BRANCH   9  18
ATOM     18  C   UNL     1      32.778  -2.198  21.785  0.00  0.00    +0.179 C 
BRANCH  18  19
ATOM     19  C   UNL     1      32.566  -2.195  23.229  0.00  0.00    +0.089 C 
ATOM     20  N   UNL     1      32.406  -2.190  24.376  0.00  0.00    -0.304 NA
ENDBRANCH  18  19
ENDBRANCH   9  18
BRANCH  10  21
ATOM     21  C   UNL     1      31.422  -4.634  21.442  0.00  0.00    +0.114 C 
BRANCH  21  22
ATOM     22  O   UNL     1      31.007  -5.777  21.927  0.00  0.00    -0.246 OA
ATOM     23  H   UNL     1      30.860  -5.689  22.862  0.00  0.00    +0.000 HD
ENDBRANCH  21  22
ENDBRANCH  10  21
TORSDOF 5
ENDMDL
MODEL 16
REMARK VINA RESULT:    -6.937      3.386      6.294
REMARK INTER + INTRA:          -5.347
REMARK INTER:                  -5.300
REMARK INTRA:                  -0.047
REMARK UNBOUND:                 3.213
REMARK  Name = scaffold
REMARK  6 active torsions:
REMARK  status: ('A' for Active; 'I' for Inactive)
REMARK    1  A    between atoms: C_3  and  O_4
REMARK    2  A    between atoms: C_5  and  C_17
REMARK    3  A    between atoms: C_15  and  C_20
REMARK    4  A    between atoms: C_15  and  C_23
REMARK    5  A    between atoms: C_16  and  C_17
REMARK    6  A    between atoms: C_23  and  O_25
REMARK                            x       y       z     vdW  Elec       q    Type
REMARK                         _______ _______ _______ _____ _____    ______ ____
ROOT
ATOM      1  C   UNL     1      33.798   1.756  27.334  0.00  0.00    -0.024 A 
ATOM      2  C   UNL     1      34.689   2.249  28.291  0.00  0.00    +0.000 A 
ATOM      3  C   UNL     1      34.978   1.502  29.433  0.00  0.00    +0.074 A 
ATOM      4  C   UNL     1      34.327   0.279  29.626  0.00  0.00    +0.008 A 
ATOM      5  C   UNL     1      33.430  -0.209  28.667  0.00  0.00    -0.049 A 
ATOM      6  C   UNL     1      32.670  -1.498  28.989  0.00  0.00    +0.058 C 
ATOM      7  C   UNL     1      31.510  -1.761  27.995  0.00  0.00    +0.018 C 
ATOM      8  C   UNL     1      32.043  -1.627  26.542  0.00  0.00    +0.000 C 
ATOM      9  C   UNL     1      31.053  -2.128  25.435  0.00  0.00    -0.004 C 
ATOM     10  C   UNL     1      31.649  -1.943  23.992  0.00  0.00    +0.006 C 
ATOM     11  C   UNL     1      32.800  -2.952  23.684  0.00  0.00    -0.039 C 
ATOM     12  C   UNL     1      32.158  -0.481  23.808  0.00  0.00    -0.032 C 
ATOM     13  C   UNL     1      33.129  -0.023  24.927  0.00  0.00    +0.006 C 
ATOM     14  C   UNL     1      32.420  -0.133  26.305  0.00  0.00    +0.030 C 
ATOM     15  C   UNL     1      33.239   0.478  27.461  0.00  0.00    -0.048 A 
ENDROOT
BRANCH   3  16
ATOM     16  O   UNL     1      35.904   1.995  30.358  0.00  0.00    -0.339 OA
ATOM     17  H   UNL     1      36.553   1.359  30.638  0.00  0.00    +0.246 HD
ENDBRANCH   3  16
BRANCH   9  18
ATOM     18  C   UNL     1      29.782  -1.225  25.546  0.00  0.00    +0.179 C 
BRANCH  18  19
ATOM     19  C   UNL     1      28.678  -1.826  26.286  0.00  0.00    +0.089 C 
ATOM     20  N   UNL     1      27.796  -2.305  26.864  0.00  0.00    -0.304 NA
ENDBRANCH  18  19
ENDBRANCH   9  18
BRANCH  10  21
ATOM     21  C   UNL     1      30.525  -2.084  22.976  0.00  0.00    +0.114 C 
BRANCH  21  22
ATOM     22  O   UNL     1      30.582  -2.656  21.800  0.00  0.00    -0.246 OA
ATOM     23  H   UNL     1      29.717  -2.663  21.409  0.00  0.00    +0.000 HD
ENDBRANCH  21  22
ENDBRANCH  10  21
TORSDOF 5
ENDMDL
MODEL 17
REMARK VINA RESULT:    -6.821      8.194     11.583
REMARK INTER + INTRA:          -5.204
REMARK INTER:                  -5.127
REMARK INTRA:                  -0.077
REMARK UNBOUND:                 3.213
REMARK  Name = scaffold
REMARK  6 active torsions:
REMARK  status: ('A' for Active; 'I' for Inactive)
REMARK    1  A    between atoms: C_3  and  O_4
REMARK    2  A    between atoms: C_5  and  C_17
REMARK    3  A    between atoms: C_15  and  C_20
REMARK    4  A    between atoms: C_15  and  C_23
REMARK    5  A    between atoms: C_16  and  C_17
REMARK    6  A    between atoms: C_23  and  O_25
REMARK                            x       y       z     vdW  Elec       q    Type
REMARK                         _______ _______ _______ _____ _____    ______ ____
ROOT
ATOM      1  C   UNL     1      35.053   0.987  16.911  0.00  0.00    -0.024 A 
ATOM      2  C   UNL     1      36.101   1.643  16.260  0.00  0.00    +0.000 A 
ATOM      3  C   UNL     1      37.396   1.126  16.315  0.00  0.00    +0.074 A 
ATOM      4  C   UNL     1      37.633  -0.028  17.069  0.00  0.00    +0.008 A 
ATOM      5  C   UNL     1      36.581  -0.679  17.725  0.00  0.00    -0.049 A 
ATOM      6  C   UNL     1      36.925  -1.871  18.621  0.00  0.00    +0.058 C 
ATOM      7  C   UNL     1      35.730  -2.305  19.508  0.00  0.00    +0.018 C 
ATOM      8  C   UNL     1      34.465  -2.461  18.619  0.00  0.00    +0.000 C 
ATOM      9  C   UNL     1      33.251  -3.152  19.329  0.00  0.00    -0.004 C 
ATOM     10  C   UNL     1      32.002  -3.256  18.379  0.00  0.00    +0.006 C 
ATOM     11  C   UNL     1      32.193  -4.322  17.253  0.00  0.00    -0.039 C 
ATOM     12  C   UNL     1      31.693  -1.865  17.749  0.00  0.00    -0.032 C 
ATOM     13  C   UNL     1      32.922  -1.213  17.064  0.00  0.00    +0.006 C 
ATOM     14  C   UNL     1      34.065  -1.046  18.102  0.00  0.00    +0.030 C 
ATOM     15  C   UNL     1      35.262  -0.235  17.563  0.00  0.00    -0.048 A 
ENDROOT
BRANCH   3  16
ATOM     16  O   UNL     1      38.423   1.775  15.622  0.00  0.00    -0.339 OA
ATOM     17  H   UNL     1      38.135   2.514  15.098  0.00  0.00    +0.246 HD
ENDBRANCH   3  16
BRANCH   9  18
ATOM     18  C   UNL     1      32.863  -2.228  20.528  0.00  0.00    +0.179 C 
BRANCH  18  19
ATOM     19  C   UNL     1      32.823  -2.901  21.821  0.00  0.00    +0.089 C 
ATOM     20  N   UNL     1      32.800  -3.435  22.849  0.00  0.00    -0.304 NA
ENDBRANCH  18  19
ENDBRANCH   9  18
BRANCH  10  21
ATOM     21  C   UNL     1      30.774  -3.576  19.218  0.00  0.00    +0.114 C 
BRANCH  21  22
ATOM     22  O   UNL     1      30.553  -4.654  19.928  0.00  0.00    -0.246 OA
ATOM     23  H   UNL     1      30.853  -5.416  19.447  0.00  0.00    +0.000 HD
ENDBRANCH  21  22
ENDBRANCH  10  21
TORSDOF 5
ENDMDL
MODEL 18
REMARK VINA RESULT:    -6.438      2.251      6.021
REMARK INTER + INTRA:          -4.731
REMARK INTER:                  -4.797
REMARK INTRA:                   0.066
REMARK UNBOUND:                 3.213
REMARK  Name = scaffold
REMARK  6 active torsions:
REMARK  status: ('A' for Active; 'I' for Inactive)
REMARK    1  A    between atoms: C_3  and  O_4
REMARK    2  A    between atoms: C_5  and  C_17
REMARK    3  A    between atoms: C_15  and  C_20
REMARK    4  A    between atoms: C_15  and  C_23
REMARK    5  A    between atoms: C_16  and  C_17
REMARK    6  A    between atoms: C_23  and  O_25
REMARK                            x       y       z     vdW  Elec       q    Type
REMARK                         _______ _______ _______ _____ _____    ______ ____
ROOT
ATOM      1  C   UNL     1      30.985  -1.446  23.271  0.00  0.00    -0.024 A 
ATOM      2  C   UNL     1      31.927  -1.887  22.338  0.00  0.00    +0.000 A 
ATOM      3  C   UNL     1      33.080  -2.549  22.763  0.00  0.00    +0.074 A 
ATOM      4  C   UNL     1      33.298  -2.719  24.134  0.00  0.00    +0.008 A 
ATOM      5  C   UNL     1      32.355  -2.270  25.066  0.00  0.00    -0.049 A 
ATOM      6  C   UNL     1      32.704  -2.387  26.552  0.00  0.00    +0.058 C 
ATOM      7  C   UNL     1      31.723  -1.593  27.452  0.00  0.00    +0.018 C 
ATOM      8  C   UNL     1      30.265  -1.959  27.062  0.00  0.00    +0.000 C 
ATOM      9  C   UNL     1      29.174  -1.441  28.062  0.00  0.00    -0.004 C 
ATOM     10  C   UNL     1      27.723  -1.828  27.593  0.00  0.00    +0.006 C 
ATOM     11  C   UNL     1      27.424  -3.352  27.763  0.00  0.00    -0.039 C 
ATOM     12  C   UNL     1      27.511  -1.405  26.109  0.00  0.00    -0.032 C 
ATOM     13  C   UNL     1      28.615  -1.931  25.156  0.00  0.00    +0.006 C 
ATOM     14  C   UNL     1      29.999  -1.409  25.628  0.00  0.00    +0.030 C 
ATOM     15  C   UNL     1      31.139  -1.723  24.636  0.00  0.00    -0.048 A 
ENDROOT
BRANCH   3  16
ATOM     16  O   UNL     1      33.990  -3.020  21.810  0.00  0.00    -0.339 OA
ATOM     17  H   UNL     1      33.899  -3.944  21.606  0.00  0.00    +0.246 HD
ENDBRANCH   3  16
BRANCH   9  18
ATOM     18  C   UNL     1      29.279   0.118  28.052  0.00  0.00    +0.179 C 
BRANCH  18  19
ATOM     19  C   UNL     1      30.173   0.669  29.064  0.00  0.00    +0.089 C 
ATOM     20  N   UNL     1      30.885   1.114  29.862  0.00  0.00    -0.304 NA
ENDBRANCH  18  19
ENDBRANCH   9  18
BRANCH  10  21
ATOM     21  C   UNL     1      26.719  -0.994  28.374  0.00  0.00    +0.114 C 
BRANCH  21  22
ATOM     22  O   UNL     1      25.510  -1.340  28.740  0.00  0.00    -0.246 OA
ATOM     23  H   UNL     1      25.389  -1.141  29.661  0.00  0.00    +0.000 HD
ENDBRANCH  21  22
ENDBRANCH  10  21
TORSDOF 5
ENDMDL
MODEL 19
REMARK VINA RESULT:    -6.313      3.009      4.260
REMARK INTER + INTRA:          -4.577
REMARK INTER:                  -4.579
REMARK INTRA:                   0.003
REMARK UNBOUND:                 3.213
REMARK  Name = scaffold
REMARK  6 active torsions:
REMARK  status: ('A' for Active; 'I' for Inactive)
REMARK    1  A    between atoms: C_3  and  O_4
REMARK    2  A    between atoms: C_5  and  C_17
REMARK    3  A    between atoms: C_15  and  C_20
REMARK    4  A    between atoms: C_15  and  C_23
REMARK    5  A    between atoms: C_16  and  C_17
REMARK    6  A    between atoms: C_23  and  O_25
REMARK                            x       y       z     vdW  Elec       q    Type
REMARK                         _______ _______ _______ _____ _____    ______ ____
ROOT
ATOM      1  C   UNL     1      28.586   0.134  26.371  0.00  0.00    -0.024 A 
ATOM      2  C   UNL     1      28.024   1.191  27.094  0.00  0.00    +0.000 A 
ATOM      3  C   UNL     1      28.811   1.937  27.973  0.00  0.00    +0.074 A 
ATOM      4  C   UNL     1      30.151   1.580  28.153  0.00  0.00    +0.008 A 
ATOM      5  C   UNL     1      30.708   0.517  27.432  0.00  0.00    -0.049 A 
ATOM      6  C   UNL     1      32.147   0.108  27.756  0.00  0.00    +0.058 C 
ATOM      7  C   UNL     1      32.533  -1.248  27.112  0.00  0.00    +0.018 C 
ATOM      8  C   UNL     1      32.152  -1.224  25.606  0.00  0.00    +0.000 C 
ATOM      9  C   UNL     1      32.726  -2.420  24.770  0.00  0.00    -0.004 C 
ATOM     10  C   UNL     1      32.284  -2.342  23.263  0.00  0.00    +0.006 C 
ATOM     11  C   UNL     1      33.010  -1.201  22.482  0.00  0.00    -0.039 C 
ATOM     12  C   UNL     1      30.739  -2.153  23.169  0.00  0.00    -0.032 C 
ATOM     13  C   UNL     1      30.213  -0.966  24.016  0.00  0.00    +0.006 C 
ATOM     14  C   UNL     1      30.598  -1.181  25.505  0.00  0.00    +0.030 C 
ATOM     15  C   UNL     1      29.955  -0.148  26.455  0.00  0.00    -0.048 A 
ENDROOT
BRANCH   3  16
ATOM     16  O   UNL     1      28.240   3.016  28.655  0.00  0.00    -0.339 OA
ATOM     17  H   UNL     1      27.704   2.768  29.400  0.00  0.00    +0.246 HD
ENDBRANCH   3  16
BRANCH   9  18
ATOM     18  C   UNL     1      32.107  -3.717  25.383  0.00  0.00    +0.179 C 
BRANCH  18  19
ATOM     19  C   UNL     1      32.954  -4.383  26.367  0.00  0.00    +0.089 C 
ATOM     20  N   UNL     1      33.627  -4.904  27.152  0.00  0.00    -0.304 NA
ENDBRANCH  18  19
ENDBRANCH   9  18
BRANCH  10  21
ATOM     21  C   UNL     1      32.542  -3.691  22.608  0.00  0.00    +0.114 C 
BRANCH  21  22
ATOM     22  O   UNL     1      32.894  -3.918  21.367  0.00  0.00    -0.246 OA
ATOM     23  H   UNL     1      33.501  -4.649  21.339  0.00  0.00    +0.000 HD
ENDBRANCH  21  22
ENDBRANCH  10  21
TORSDOF 5
ENDMDL
MODEL 20
REMARK VINA RESULT:    -4.717      4.318      6.232
REMARK INTER + INTRA:          -2.607
REMARK INTER:                  -5.820
REMARK INTRA:                   3.213
REMARK UNBOUND:                 3.213
REMARK  Name = scaffold
REMARK  6 active torsions:
REMARK  status: ('A' for Active; 'I' for Inactive)
REMARK    1  A    between atoms: C_3  and  O_4
REMARK    2  A    between atoms: C_5  and  C_17
REMARK    3  A    between atoms: C_15  and  C_20
REMARK    4  A    between atoms: C_15  and  C_23
REMARK    5  A    between atoms: C_16  and  C_17
REMARK    6  A    between atoms: C_23  and  O_25
REMARK                            x       y       z     vdW  Elec       q    Type
REMARK                         _______ _______ _______ _____ _____    ______ ____
ROOT
ATOM      1  C   UNL     1      32.243   0.998  26.318  0.00  0.00    -0.024 A 
ATOM      2  C   UNL     1      32.754   2.050  27.083  0.00  0.00    +0.000 A 
ATOM      3  C   UNL     1      33.967   1.904  27.758  0.00  0.00    +0.074 A 
ATOM      4  C   UNL     1      34.634   0.676  27.695  0.00  0.00    +0.008 A 
ATOM      5  C   UNL     1      34.115  -0.379  26.933  0.00  0.00    -0.049 A 
ATOM      6  C   UNL     1      34.834  -1.728  26.994  0.00  0.00    +0.058 C 
ATOM      7  C   UNL     1      34.001  -2.869  26.355  0.00  0.00    +0.018 C 
ATOM      8  C   UNL     1      33.513  -2.418  24.951  0.00  0.00    +0.000 C 
ATOM      9  C   UNL     1      32.890  -3.563  24.080  0.00  0.00    -0.004 C 
ATOM     10  C   UNL     1      32.399  -3.031  22.684  0.00  0.00    +0.006 C 
ATOM     11  C   UNL     1      33.582  -2.687  21.723  0.00  0.00    -0.039 C 
ATOM     12  C   UNL     1      31.490  -1.781  22.878  0.00  0.00    -0.032 C 
ATOM     13  C   UNL     1      32.140  -0.677  23.751  0.00  0.00    +0.006 C 
ATOM     14  C   UNL     1      32.489  -1.260  25.148  0.00  0.00    +0.030 C 
ATOM     15  C   UNL     1      32.967  -0.190  26.152  0.00  0.00    -0.048 A 
ENDROOT
BRANCH   3  16
ATOM     16  O   UNL     1      34.482   2.983  28.483  0.00  0.00    -0.339 OA
ATOM     17  H   UNL     1      34.069   3.119  29.328  0.00  0.00    +0.246 HD
ENDBRANCH   3  16
BRANCH   9  18
ATOM     18  C   UNL     1      31.638  -4.074  24.863  0.00  0.00    +0.179 C 
BRANCH  18  19
ATOM     19  C   UNL     1      31.502  -3.526  26.208  0.00  0.00    +0.089 C 
ATOM     20  N   UNL     1      31.394  -3.083  27.272  0.00  0.00    -0.304 NA
ENDBRANCH  18  19
ENDBRANCH   9  18
BRANCH  10  21
ATOM     21  C   UNL     1      31.485  -4.073  22.057  0.00  0.00    +0.114 C 
BRANCH  21  22
ATOM     22  O   UNL     1      31.806  -4.987  21.176  0.00  0.00    -0.246 OA
ATOM     23  H   UNL     1      31.770  -4.612  20.304  0.00  0.00    +0.000 HD
ENDBRANCH  21  22
ENDBRANCH  10  21
TORSDOF 5
ENDMDL
