REMARK  Name = 304
REMARK  5 active torsions:
REMARK  status: ('A' for Active; 'I' for Inactive)
REMARK    1  A    between atoms: C_3  and  O_4
REMARK    2  A    between atoms: C_5  and  C_17
REMARK    3  A    between atoms: C_15  and  C_20
REMARK    4  A    between atoms: C_15  and  C_23
REMARK    5  A    between atoms: C_16  and  C_17
REMARK                            x       y       z     vdW  Elec       q    Type
REMARK                         _______ _______ _______ _____ _____    ______ ____
ROOT
ATOM      1  C   UNL     1       1.979  -0.655   6.097  0.00  0.00    -0.024 A 
ATOM      2  C   UNL     1       2.012  -1.409   7.272  0.00  0.00    +0.000 A 
ATOM      3  C   UNL     1       0.858  -2.047   7.730  0.00  0.00    +0.074 A 
ATOM      4  C   UNL     1      -0.337  -1.876   7.022  0.00  0.00    +0.008 A 
ATOM      5  C   UNL     1      -0.370  -1.114   5.848  0.00  0.00    -0.049 A 
ATOM      6  C   UNL     1      -1.734  -0.889   5.184  0.00  0.00    +0.058 C 
ATOM      7  C   UNL     1      -1.663   0.192   4.077  0.00  0.00    +0.018 C 
ATOM      8  C   UNL     1      -0.467  -0.128   3.145  0.00  0.00    -0.000 C 
ATOM      9  C   UNL     1      -0.493   0.614   1.765  0.00  0.00    -0.004 C 
ATOM     10  C   UNL     1       0.718   0.147   0.884  0.00  0.00    +0.016 C 
ATOM     11  C   UNL     1       0.565  -1.317   0.362  0.00  0.00    -0.039 C 
ATOM     12  C   UNL     1       2.049   0.314   1.676  0.00  0.00    -0.032 C 
ATOM     13  C   UNL     1       2.042  -0.400   3.055  0.00  0.00    +0.006 C 
ATOM     14  C   UNL     1       0.857   0.094   3.931  0.00  0.00    +0.030 C 
ATOM     15  C   UNL     1       0.815  -0.579   5.321  0.00  0.00    -0.048 A 
ENDROOT
BRANCH  10  16
ATOM     16  C   UNL     1       0.806   0.993  -0.369  0.00  0.00    +0.179 A 
ATOM     17  O   UNL     1      -0.159   0.889  -1.333  0.00  0.00    -0.218 OA
ATOM     18  C   UNL     1       0.340   1.820  -2.252  0.00  0.00    +0.171 A 
ATOM     19  C   UNL     1       1.500   2.425  -1.830  0.00  0.00    +0.110 A 
ATOM     20  C   UNL     1       2.194   3.394  -2.549  0.00  0.00    +0.036 A 
ATOM     21  C   UNL     1       1.631   3.731  -3.788  0.00  0.00    +0.001 A 
ATOM     22  C   UNL     1       0.450   3.118  -4.245  0.00  0.00    +0.011 A 
ATOM     23  C   UNL     1      -0.222   2.150  -3.483  0.00  0.00    +0.051 A 
ATOM     24  N   UNL     1       1.710   1.846  -0.653  0.00  0.00    -0.225 NA
ENDBRANCH  10  16
BRANCH   3  25
ATOM     25  O   UNL     1       0.923  -2.835   8.883  0.00  0.00    -0.339 OA
ATOM     26  H   UNL     1       0.118  -3.300   9.084  0.00  0.00    +0.246 HD
ENDBRANCH   3  25
BRANCH   9  27
ATOM     27  C   UNL     1      -0.580   2.171   1.883  0.00  0.00    +0.179 C 
BRANCH  27  28
ATOM     28  C   UNL     1      -1.849   2.622   2.442  0.00  0.00    +0.089 C 
ATOM     29  N   UNL     1      -2.856   2.982   2.885  0.00  0.00    -0.304 NA
ENDBRANCH  27  28
ENDBRANCH   9  27
TORSDOF 4
